
 OpenBabel09232611413D

 52 54  0  0  1  0  0  0  0  0999 V2000
   -5.2694   -1.1590   -0.7093 O   0  0  0  0  0  0  0  0  0  0  0  0
   -3.3336   -2.1751   -1.0831 O   0  0  0  0  0  0  0  0  0  0  0  0
   -0.6619    0.9608    0.2629 C   0  0  1  0  0  0  0  0  0  0  0  0
   -1.5910   -0.2893    0.0149 C   0  0  2  0  0  0  0  0  0  0  0  0
    0.7778    0.5310   -0.2342 C   0  0  2  0  0  0  0  0  0  0  0  0
   -3.1652   -0.0481    0.0395 C   0  0  2  0  0  0  0  0  0  0  0  0
   -1.1671    2.1468   -0.6078 C   0  0  0  0  0  0  0  0  0  0  0  0
   -3.4851    1.2100   -0.8124 C   0  0  0  0  0  0  0  0  0  0  0  0
   -1.1241   -1.4794    0.8996 C   0  0  0  0  0  0  0  0  0  0  0  0
   -2.6604    2.4381   -0.4079 C   0  0  0  0  0  0  0  0  0  0  0  0
    1.2433   -0.7826    0.3819 C   0  0  0  0  0  0  0  0  0  0  0  0
   -0.5879    1.4113    1.7543 C   0  0  0  0  0  0  0  0  0  0  0  0
    1.8841    1.5889   -0.0409 C   0  0  0  0  0  0  0  0  0  0  0  0
    0.3719   -1.6734    0.8982 C   0  0  0  0  0  0  0  0  0  0  0  0
   -3.7657    0.1034    1.4626 C   0  0  0  0  0  0  0  0  0  0  0  0
    3.2130    1.1059   -0.6367 C   0  0  0  0  0  0  0  0  0  0  0  0
   -3.9215   -1.2115   -0.6139 C   0  0  0  0  0  0  0  0  0  0  0  0
    2.6959   -1.1086    0.3868 C   0  0  0  0  0  0  0  0  0  0  0  0
    3.6273   -0.2543   -0.0949 C   0  0  0  0  0  0  0  0  0  0  0  0
    5.0891   -0.6877   -0.1353 C   0  0  0  0  0  0  0  0  0  0  0  0
    5.6104   -0.6980   -1.5764 C   0  0  0  0  0  0  0  0  0  0  0  0
    5.9633    0.2059    0.7534 C   0  0  0  0  0  0  0  0  0  0  0  0
   -1.3805   -0.5664   -1.0453 H   0  0  0  0  0  0  0  0  0  0  0  0
    0.7262    0.3439   -1.3313 H   0  0  0  0  0  0  0  0  0  0  0  0
   -1.0239    1.9037   -1.6848 H   0  0  0  0  0  0  0  0  0  0  0  0
   -0.5847    3.0683   -0.3968 H   0  0  0  0  0  0  0  0  0  0  0  0
   -4.5690    1.4541   -0.7541 H   0  0  0  0  0  0  0  0  0  0  0  0
   -3.2543    0.9967   -1.8814 H   0  0  0  0  0  0  0  0  0  0  0  0
   -1.5875   -2.4151    0.5339 H   0  0  0  0  0  0  0  0  0  0  0  0
   -1.4230   -1.3499    1.9587 H   0  0  0  0  0  0  0  0  0  0  0  0
   -2.9454    3.2872   -1.0663 H   0  0  0  0  0  0  0  0  0  0  0  0
   -2.8799    2.7443    0.6339 H   0  0  0  0  0  0  0  0  0  0  0  0
   -1.5364    1.7599    2.1705 H   0  0  0  0  0  0  0  0  0  0  0  0
   -0.1945    0.6113    2.4128 H   0  0  0  0  0  0  0  0  0  0  0  0
    0.0784    2.2894    1.8656 H   0  0  0  0  0  0  0  0  0  0  0  0
    2.0503    1.7675    1.0427 H   0  0  0  0  0  0  0  0  0  0  0  0
    1.6170    2.5510   -0.5238 H   0  0  0  0  0  0  0  0  0  0  0  0
    0.7469   -2.5843    1.3574 H   0  0  0  0  0  0  0  0  0  0  0  0
   -4.8658    0.2502    1.4016 H   0  0  0  0  0  0  0  0  0  0  0  0
   -3.6000   -0.8097    2.0698 H   0  0  0  0  0  0  0  0  0  0  0  0
   -3.4058    0.9697    2.0247 H   0  0  0  0  0  0  0  0  0  0  0  0
    3.9688    1.8763   -0.3839 H   0  0  0  0  0  0  0  0  0  0  0  0
    3.1530    1.0408   -1.7443 H   0  0  0  0  0  0  0  0  0  0  0  0
    3.0050   -2.0784    0.7692 H   0  0  0  0  0  0  0  0  0  0  0  0
    5.1860   -1.7243    0.2593 H   0  0  0  0  0  0  0  0  0  0  0  0
   -5.7760   -1.8701   -1.1267 H   0  0  0  0  0  0  0  0  0  0  0  0
    5.5774    0.3201   -2.0198 H   0  0  0  0  0  0  0  0  0  0  0  0
    4.9936   -1.3812   -2.1986 H   0  0  0  0  0  0  0  0  0  0  0  0
    6.6610   -1.0583   -1.6011 H   0  0  0  0  0  0  0  0  0  0  0  0
    5.5891    0.1824    1.7991 H   0  0  0  0  0  0  0  0  0  0  0  0
    5.9759    1.2566    0.3986 H   0  0  0  0  0  0  0  0  0  0  0  0
    7.0100   -0.1667    0.7519 H   0  0  0  0  0  0  0  0  0  0  0  0
  1 17  1  0  0  0  0
  1 46  1  0  0  0  0
  2 17  2  0  0  0  0
  3  4  1  6  0  0  0
  3  7  1  0  0  0  0
  3 12  1  0  0  0  0
  4  6  1  1  0  0  0
  4  9  1  0  0  0  0
  4 23  1  0  0  0  0
  5  3  1  1  0  0  0
  5 11  1  0  0  0  0
  5 13  1  0  0  0  0
  5 24  1  0  0  0  0
  6  8  1  0  0  0  0
  6 15  1  0  0  0  0
  6 17  1  6  0  0  0
  7 10  1  0  0  0  0
  7 25  1  0  0  0  0
  7 26  1  0  0  0  0
  8 10  1  0  0  0  0
  8 27  1  0  0  0  0
  8 28  1  0  0  0  0
  9 14  1  0  0  0  0
  9 29  1  0  0  0  0
  9 30  1  0  0  0  0
 10 31  1  0  0  0  0
 10 32  1  0  0  0  0
 11 14  2  0  0  0  0
 11 18  1  0  0  0  0
 12 33  1  0  0  0  0
 12 34  1  0  0  0  0
 12 35  1  0  0  0  0
 13 16  1  0  0  0  0
 13 36  1  0  0  0  0
 13 37  1  0  0  0  0
 14 38  1  0  0  0  0
 15 39  1  0  0  0  0
 15 40  1  0  0  0  0
 15 41  1  0  0  0  0
 16 19  1  0  0  0  0
 16 42  1  0  0  0  0
 16 43  1  0  0  0  0
 18 19  2  0  0  0  0
 18 44  1  0  0  0  0
 19 20  1  0  0  0  0
 20 21  1  0  0  0  0
 20 22  1  0  0  0  0
 20 45  1  0  0  0  0
 21 47  1  0  0  0  0
 21 48  1  0  0  0  0
 21 49  1  0  0  0  0
 22 50  1  0  0  0  0
 22 51  1  0  0  0  0
 22 52  1  0  0  0  0
M  END
