
 OpenBabel09232614083D

 32 32  0  0  0  0  0  0  0  0999 V2000
    0.0116    0.2922    1.8058 C   0  0  0  0  0  0  0  0  0  0  0  0
    1.0306   -0.2225    0.8299 C   0  0  0  0  0  0  0  0  0  0  0  0
    0.9560    0.1598   -0.4501 C   0  0  0  0  0  0  0  0  0  0  0  0
   -0.1875    0.9863   -0.9332 C   0  0  0  0  0  0  0  0  0  0  0  0
   -1.3334    1.0912   -0.1693 C   0  0  0  0  0  0  0  0  0  0  0  0
   -1.3946    0.2916    1.1697 C   0  0  0  0  0  0  0  0  0  0  0  0
   -2.3863    0.8666    2.2066 C   0  0  0  0  0  0  0  0  0  0  0  0
   -1.8337   -1.1587    0.8612 C   0  0  0  0  0  0  0  0  0  0  0  0
    0.0556    1.6934   -2.2472 C   0  0  0  0  0  0  0  0  0  0  0  0
   -2.5082    1.9307   -0.6019 C   0  0  0  0  0  0  0  0  0  0  0  0
   -2.9957    2.6941    0.2164 O   0  0  0  0  0  0  0  0  0  0  0  0
   -3.1392    1.9537   -1.9578 C   0  0  0  0  0  0  0  0  0  0  0  0
   -3.1039    1.0274   -2.9409 C   0  0  0  0  0  0  0  0  0  0  0  0
   -2.4508   -0.3250   -2.9157 C   0  0  0  0  0  0  0  0  0  0  0  0
    0.0687   -0.2765    2.7594 H   0  0  0  0  0  0  0  0  0  0  0  0
    0.2756    1.3506    2.0278 H   0  0  0  0  0  0  0  0  0  0  0  0
    1.8359   -0.8678    1.1670 H   0  0  0  0  0  0  0  0  0  0  0  0
    1.7375   -0.1418   -1.1413 H   0  0  0  0  0  0  0  0  0  0  0  0
   -2.1154    1.9101    2.4755 H   0  0  0  0  0  0  0  0  0  0  0  0
   -3.4293    0.8429    1.8248 H   0  0  0  0  0  0  0  0  0  0  0  0
   -2.3669    0.2637    3.1406 H   0  0  0  0  0  0  0  0  0  0  0  0
   -1.8524   -1.7703    1.7892 H   0  0  0  0  0  0  0  0  0  0  0  0
   -2.8532   -1.1663    0.4182 H   0  0  0  0  0  0  0  0  0  0  0  0
   -1.1498   -1.6549    0.1410 H   0  0  0  0  0  0  0  0  0  0  0  0
   -0.7516    2.3729   -2.5633 H   0  0  0  0  0  0  0  0  0  0  0  0
    0.9635    2.3249   -2.1488 H   0  0  0  0  0  0  0  0  0  0  0  0
    0.2360    0.9480   -3.0490 H   0  0  0  0  0  0  0  0  0  0  0  0
   -3.7483    2.8297   -2.1674 H   0  0  0  0  0  0  0  0  0  0  0  0
   -3.6429    1.2617   -3.8547 H   0  0  0  0  0  0  0  0  0  0  0  0
   -1.9813   -0.5821   -1.9572 H   0  0  0  0  0  0  0  0  0  0  0  0
   -3.2281   -1.0941   -3.1043 H   0  0  0  0  0  0  0  0  0  0  0  0
   -1.6942   -0.3861   -3.7243 H   0  0  0  0  0  0  0  0  0  0  0  0
  1  6  1  0  0  0  0
  1 15  1  0  0  0  0
  1 16  1  0  0  0  0
  2  1  1  0  0  0  0
  2 17  1  0  0  0  0
  3  2  2  0  0  0  0
  3  4  1  0  0  0  0
  3 18  1  0  0  0  0
  4  9  1  0  0  0  0
  5 10  1  0  0  0  0
  5  4  2  0  0  0  0
  6  7  1  0  0  0  0
  6  8  1  0  0  0  0
  6  5  1  0  0  0  0
  7 19  1  0  0  0  0
  7 20  1  0  0  0  0
  7 21  1  0  0  0  0
  8 22  1  0  0  0  0
  8 23  1  0  0  0  0
  8 24  1  0  0  0  0
  9 25  1  0  0  0  0
  9 26  1  0  0  0  0
  9 27  1  0  0  0  0
 10 11  2  0  0  0  0
 10 12  1  0  0  0  0
 12 13  2  0  0  0  0
 12 28  1  0  0  0  0
 13 14  1  0  0  0  0
 13 29  1  0  0  0  0
 14 30  1  0  0  0  0
 14 31  1  0  0  0  0
 14 32  1  0  0  0  0
M  END
