
 OpenBabel09232612553D

 34 34  0  0  0  0  0  0  0  0999 V2000
    3.6279   -1.2476    0.2880 O   0  0  0  0  0  0  0  0  0  0  0  0
   -1.5483   -1.1077    0.0114 C   0  0  0  0  0  0  0  0  0  0  0  0
   -3.0175   -0.6077    0.1407 C   0  0  0  0  0  0  0  0  0  0  0  0
   -3.2336    0.6632   -0.6488 C   0  0  0  0  0  0  0  0  0  0  0  0
   -0.5157    0.0472    0.1604 C   0  0  0  0  0  0  0  0  0  0  0  0
   -2.3819    1.7633   -0.0252 C   0  0  0  0  0  0  0  0  0  0  0  0
   -0.9356    1.3625    0.2105 C   0  0  0  0  0  0  0  0  0  0  0  0
   -1.3283   -1.7804   -1.3638 C   0  0  0  0  0  0  0  0  0  0  0  0
   -1.3789   -2.1832    1.1146 C   0  0  0  0  0  0  0  0  0  0  0  0
    0.9360   -0.3702    0.2152 C   0  0  0  0  0  0  0  0  0  0  0  0
   -0.0546    2.5419    0.5705 C   0  0  0  0  0  0  0  0  0  0  0  0
    1.9798    0.3503   -0.2433 C   0  0  0  0  0  0  0  0  0  0  0  0
    3.3755   -0.1547   -0.1978 C   0  0  0  0  0  0  0  0  0  0  0  0
    4.5005    0.6708   -0.7463 C   0  0  0  0  0  0  0  0  0  0  0  0
   -3.2603   -0.3714    1.2026 H   0  0  0  0  0  0  0  0  0  0  0  0
   -3.7235   -1.4024   -0.1874 H   0  0  0  0  0  0  0  0  0  0  0  0
   -4.3004    0.9739   -0.6216 H   0  0  0  0  0  0  0  0  0  0  0  0
   -2.9554    0.5046   -1.7108 H   0  0  0  0  0  0  0  0  0  0  0  0
   -2.8075    2.0799    0.9524 H   0  0  0  0  0  0  0  0  0  0  0  0
   -2.4312    2.6314   -0.7182 H   0  0  0  0  0  0  0  0  0  0  0  0
   -1.4374   -1.0565   -2.1966 H   0  0  0  0  0  0  0  0  0  0  0  0
   -0.3076   -2.2137   -1.4333 H   0  0  0  0  0  0  0  0  0  0  0  0
   -2.0560   -2.6058   -1.5199 H   0  0  0  0  0  0  0  0  0  0  0  0
   -2.1531   -2.9744    1.0079 H   0  0  0  0  0  0  0  0  0  0  0  0
   -0.4044   -2.7053    1.0694 H   0  0  0  0  0  0  0  0  0  0  0  0
   -1.4846   -1.7274    2.1228 H   0  0  0  0  0  0  0  0  0  0  0  0
    1.1668   -1.3657    0.5647 H   0  0  0  0  0  0  0  0  0  0  0  0
    0.0325    3.2336   -0.2934 H   0  0  0  0  0  0  0  0  0  0  0  0
    0.9423    2.2819    0.9628 H   0  0  0  0  0  0  0  0  0  0  0  0
   -0.5281    3.0912    1.4117 H   0  0  0  0  0  0  0  0  0  0  0  0
    1.8265    1.3170   -0.7040 H   0  0  0  0  0  0  0  0  0  0  0  0
    5.0082    0.1125   -1.5606 H   0  0  0  0  0  0  0  0  0  0  0  0
    4.1337    1.6362   -1.1542 H   0  0  0  0  0  0  0  0  0  0  0  0
    5.2329    0.8832    0.0605 H   0  0  0  0  0  0  0  0  0  0  0  0
  1 13  2  0  0  0  0
  2  3  1  0  0  0  0
  2  5  1  0  0  0  0
  2  8  1  0  0  0  0
  2  9  1  0  0  0  0
  3  4  1  0  0  0  0
  3 15  1  0  0  0  0
  3 16  1  0  0  0  0
  4  6  1  0  0  0  0
  4 17  1  0  0  0  0
  4 18  1  0  0  0  0
  5  7  2  0  0  0  0
  5 10  1  0  0  0  0
  6  7  1  0  0  0  0
  6 19  1  0  0  0  0
  6 20  1  0  0  0  0
  7 11  1  0  0  0  0
  8 21  1  0  0  0  0
  8 22  1  0  0  0  0
  8 23  1  0  0  0  0
  9 24  1  0  0  0  0
  9 25  1  0  0  0  0
  9 26  1  0  0  0  0
 10 12  2  0  0  0  0
 10 27  1  0  0  0  0
 11 28  1  0  0  0  0
 11 29  1  0  0  0  0
 11 30  1  0  0  0  0
 12 13  1  0  0  0  0
 12 31  1  0  0  0  0
 13 14  1  0  0  0  0
 14 32  1  0  0  0  0
 14 33  1  0  0  0  0
 14 34  1  0  0  0  0
M  END
