
 OpenBabel09232611353D

 39 40  0  0  1  0  0  0  0  0999 V2000
   -0.8406    1.0863   -0.2205 C   0  0  1  0  0  0  0  0  0  0  0  0
    0.0367    2.3316    0.0879 C   0  0  1  0  0  0  0  0  0  0  0  0
   -0.0680   -0.2417   -0.1272 C   0  0  0  0  0  0  0  0  0  0  0  0
    1.3229    2.2110   -0.7129 C   0  0  0  0  0  0  0  0  0  0  0  0
   -2.0422    1.0063    0.7322 C   0  0  0  0  0  0  0  0  0  0  0  0
    1.3095   -0.2781   -0.0913 C   0  0  0  0  0  0  0  0  0  0  0  0
    2.1208    1.0104   -0.2124 C   0  0  0  0  0  0  0  0  0  0  0  0
   -2.9828   -0.1321    0.3205 C   0  0  0  0  0  0  0  0  0  0  0  0
    2.1163   -1.5765    0.1045 C   0  0  0  0  0  0  0  0  0  0  0  0
   -0.6730    3.6495   -0.2701 C   0  0  0  0  0  0  0  0  0  0  0  0
   -0.9188   -1.4814   -0.1084 C   0  0  0  0  0  0  0  0  0  0  0  0
   -2.2581   -1.4322    0.0626 C   0  0  0  0  0  0  0  0  0  0  0  0
    2.9472   -1.9148   -1.1407 C   0  0  0  0  0  0  0  0  0  0  0  0
    3.0144   -1.4896    1.3460 C   0  0  0  0  0  0  0  0  0  0  0  0
   -3.0868   -2.6878   -0.0213 C   0  0  0  0  0  0  0  0  0  0  0  0
   -1.2291    1.1654   -1.2616 H   0  0  0  0  0  0  0  0  0  0  0  0
    0.3034    2.3612    1.1693 H   0  0  0  0  0  0  0  0  0  0  0  0
    1.9588    3.1176   -0.6076 H   0  0  0  0  0  0  0  0  0  0  0  0
    1.0722    2.0857   -1.7909 H   0  0  0  0  0  0  0  0  0  0  0  0
   -2.6449    1.9356    0.7503 H   0  0  0  0  0  0  0  0  0  0  0  0
   -1.6590    0.8225    1.7614 H   0  0  0  0  0  0  0  0  0  0  0  0
    2.5508    1.2374    0.7864 H   0  0  0  0  0  0  0  0  0  0  0  0
    2.9579    0.8921   -0.9284 H   0  0  0  0  0  0  0  0  0  0  0  0
   -3.5449    0.1288   -0.6022 H   0  0  0  0  0  0  0  0  0  0  0  0
   -3.7141   -0.2598    1.1478 H   0  0  0  0  0  0  0  0  0  0  0  0
    1.4687   -2.4469    0.2841 H   0  0  0  0  0  0  0  0  0  0  0  0
    0.0004    4.5094   -0.0665 H   0  0  0  0  0  0  0  0  0  0  0  0
   -0.9521    3.6661   -1.3456 H   0  0  0  0  0  0  0  0  0  0  0  0
   -1.5836    3.8050    0.3400 H   0  0  0  0  0  0  0  0  0  0  0  0
   -0.4878   -2.4569   -0.2732 H   0  0  0  0  0  0  0  0  0  0  0  0
    3.7129   -1.1427   -1.3553 H   0  0  0  0  0  0  0  0  0  0  0  0
    2.2797   -2.0177   -2.0227 H   0  0  0  0  0  0  0  0  0  0  0  0
    3.4760   -2.8809   -0.9933 H   0  0  0  0  0  0  0  0  0  0  0  0
    2.3976   -1.2860    2.2473 H   0  0  0  0  0  0  0  0  0  0  0  0
    3.7782   -0.6910    1.2407 H   0  0  0  0  0  0  0  0  0  0  0  0
    3.5474   -2.4524    1.5005 H   0  0  0  0  0  0  0  0  0  0  0  0
   -3.6240   -2.8419    0.9378 H   0  0  0  0  0  0  0  0  0  0  0  0
   -2.4700   -3.5897   -0.2225 H   0  0  0  0  0  0  0  0  0  0  0  0
   -3.8303   -2.5857   -0.8393 H   0  0  0  0  0  0  0  0  0  0  0  0
  1  2  1  1  0  0  0
  1  3  1  0  0  0  0
  1  5  1  0  0  0  0
  1 16  1  0  0  0  0
  2  4  1  0  0  0  0
  2 10  1  0  0  0  0
  2 17  1  1  0  0  0
  3  6  2  0  0  0  0
  3 11  1  0  0  0  0
  4  7  1  0  0  0  0
  4 18  1  0  0  0  0
  4 19  1  0  0  0  0
  5  8  1  0  0  0  0
  5 20  1  0  0  0  0
  5 21  1  0  0  0  0
  6  7  1  0  0  0  0
  6  9  1  0  0  0  0
  7 22  1  0  0  0  0
  7 23  1  0  0  0  0
  8 12  1  0  0  0  0
  8 24  1  0  0  0  0
  8 25  1  0  0  0  0
  9 13  1  0  0  0  0
  9 14  1  0  0  0  0
  9 26  1  0  0  0  0
 10 27  1  0  0  0  0
 10 28  1  0  0  0  0
 10 29  1  0  0  0  0
 11 12  2  0  0  0  0
 11 30  1  0  0  0  0
 12 15  1  0  0  0  0
 13 31  1  0  0  0  0
 13 32  1  0  0  0  0
 13 33  1  0  0  0  0
 14 34  1  0  0  0  0
 14 35  1  0  0  0  0
 14 36  1  0  0  0  0
 15 37  1  0  0  0  0
 15 38  1  0  0  0  0
 15 39  1  0  0  0  0
M  END
