
 OpenBabel09232614303D

 34 33  0  0  0  0  0  0  0  0999 V2000
    0.6869   58.9095    1.2658 C   0  0  0  0  0  0  0  0  0  0  0  0
    1.2413   59.3432    0.1180 C   0  0  0  0  0  0  0  0  0  0  0  0
    2.7355   59.1939   -0.2109 C   0  0  1  0  0  0  0  0  0  0  0  0
    0.3488   60.0083   -0.9050 C   0  0  0  0  0  0  0  0  0  0  0  0
    3.4208   60.5748   -0.3526 C   0  0  0  0  0  0  0  0  0  0  0  0
    3.5559   58.3016    0.7549 C   0  0  0  0  0  0  0  0  0  0  0  0
    3.3544   61.3741    0.9344 C   0  0  0  0  0  0  0  0  0  0  0  0
    4.3974   61.8110    1.6838 C   0  0  0  0  0  0  0  0  0  0  0  0
    4.1186   62.6002    2.9386 C   0  0  0  0  0  0  0  0  0  0  0  0
    5.8558   61.5666    1.3698 C   0  0  0  0  0  0  0  0  0  0  0  0
    2.2227   54.8623    1.5802 C   0  0  0  0  0  0  0  0  0  0  0  0
    2.7788   56.2323    1.7989 C   0  0  0  0  0  0  0  0  0  0  0  0
    3.0928   56.9965    0.7203 O   0  0  0  0  0  0  0  0  0  0  0  0
    2.9536   56.6416    2.9381 O   0  0  0  0  0  0  0  0  0  0  0  0
   -0.3748   59.0337    1.4563 H   0  0  0  0  0  0  0  0  0  0  0  0
    1.2588   58.4385    2.0497 H   0  0  0  0  0  0  0  0  0  0  0  0
    2.7959   58.6909   -1.2019 H   0  0  0  0  0  0  0  0  0  0  0  0
   -0.7136   60.0440   -0.5809 H   0  0  0  0  0  0  0  0  0  0  0  0
    0.6721   61.0527   -1.0852 H   0  0  0  0  0  0  0  0  0  0  0  0
    0.3966   59.4430   -1.8590 H   0  0  0  0  0  0  0  0  0  0  0  0
    4.4489   60.4064   -0.7142 H   0  0  0  0  0  0  0  0  0  0  0  0
    2.9276   61.1679   -1.1491 H   0  0  0  0  0  0  0  0  0  0  0  0
    4.6083   58.2812    0.3981 H   0  0  0  0  0  0  0  0  0  0  0  0
    3.5669   58.7235    1.7840 H   0  0  0  0  0  0  0  0  0  0  0  0
    2.3490   61.6108    1.2725 H   0  0  0  0  0  0  0  0  0  0  0  0
    3.0321   62.7467    3.1197 H   0  0  0  0  0  0  0  0  0  0  0  0
    4.5443   62.0671    3.8145 H   0  0  0  0  0  0  0  0  0  0  0  0
    4.5926   63.6012    2.8606 H   0  0  0  0  0  0  0  0  0  0  0  0
    6.0544   60.9803    0.4587 H   0  0  0  0  0  0  0  0  0  0  0  0
    6.3718   62.5428    1.2545 H   0  0  0  0  0  0  0  0  0  0  0  0
    6.3211   61.0185    2.2157 H   0  0  0  0  0  0  0  0  0  0  0  0
    2.9510   54.2546    1.0040 H   0  0  0  0  0  0  0  0  0  0  0  0
    2.0203   54.3586    2.5496 H   0  0  0  0  0  0  0  0  0  0  0  0
    1.2744   54.9359    1.0082 H   0  0  0  0  0  0  0  0  0  0  0  0
  1  2  2  0  0  0  0
  1 15  1  0  0  0  0
  1 16  1  0  0  0  0
  2  3  1  0  0  0  0
  2  4  1  0  0  0  0
  3  5  1  0  0  0  0
  3  6  1  0  0  0  0
  3 17  1  6  0  0  0
  4 18  1  0  0  0  0
  4 19  1  0  0  0  0
  4 20  1  0  0  0  0
  5  7  1  0  0  0  0
  5 21  1  0  0  0  0
  5 22  1  0  0  0  0
  6 13  1  0  0  0  0
  6 23  1  0  0  0  0
  6 24  1  0  0  0  0
  7  8  2  0  0  0  0
  7 25  1  0  0  0  0
  8  9  1  0  0  0  0
  8 10  1  0  0  0  0
  9 26  1  0  0  0  0
  9 27  1  0  0  0  0
  9 28  1  0  0  0  0
 10 29  1  0  0  0  0
 10 30  1  0  0  0  0
 10 31  1  0  0  0  0
 11 12  1  0  0  0  0
 11 32  1  0  0  0  0
 11 33  1  0  0  0  0
 11 34  1  0  0  0  0
 12 13  1  0  0  0  0
 12 14  2  0  0  0  0
M  END
