
 OpenBabel09232612593D

 39 41  0  0  1  0  0  0  0  0999 V2000
    0.5204   -1.0314   -0.2970 C   0  0  2  0  0  0  0  0  0  0  0  0
   -0.5281   -0.3440   -1.2294 C   0  0  2  0  0  0  0  0  0  0  0  0
   -1.1585    0.7859   -0.3398 C   0  0  1  0  0  0  0  0  0  0  0  0
   -0.4912   -1.2623    0.8217 C   0  0  1  0  0  0  0  0  0  0  0  0
    1.8797   -0.3175    0.0462 C   0  0  0  0  0  0  0  0  0  0  0  0
   -1.5131   -1.5297   -1.3525 C   0  0  0  0  0  0  0  0  0  0  0  0
   -1.0503    0.1164    1.0093 C   0  0  0  0  0  0  0  0  0  0  0  0
   -1.5780   -2.0783    0.0854 C   0  0  0  0  0  0  0  0  0  0  0  0
   -0.3849    2.1335   -0.3973 C   0  0  0  0  0  0  0  0  0  0  0  0
    1.7977    1.1553    0.5578 C   0  0  0  0  0  0  0  0  0  0  0  0
    1.1420    2.1282   -0.4186 C   0  0  0  0  0  0  0  0  0  0  0  0
   -2.6387    1.1196   -0.6609 C   0  0  0  0  0  0  0  0  0  0  0  0
    2.7762   -0.3889   -1.2223 C   0  0  0  0  0  0  0  0  0  0  0  0
    2.6020   -1.1346    1.1452 C   0  0  0  0  0  0  0  0  0  0  0  0
   -1.3793    0.6462    2.1960 C   0  0  0  0  0  0  0  0  0  0  0  0
    0.8445   -2.0245   -0.7011 H   0  0  0  0  0  0  0  0  0  0  0  0
   -0.2090   -0.0033   -2.2376 H   0  0  0  0  0  0  0  0  0  0  0  0
   -0.1851   -1.7624    1.7651 H   0  0  0  0  0  0  0  0  0  0  0  0
   -1.0201   -2.2927   -1.9988 H   0  0  0  0  0  0  0  0  0  0  0  0
   -2.4963   -1.3348   -1.8266 H   0  0  0  0  0  0  0  0  0  0  0  0
   -2.5668   -1.9449    0.5777 H   0  0  0  0  0  0  0  0  0  0  0  0
   -1.3324   -3.1631    0.0605 H   0  0  0  0  0  0  0  0  0  0  0  0
   -0.7214    2.7422    0.4704 H   0  0  0  0  0  0  0  0  0  0  0  0
   -0.6796    2.7047   -1.3063 H   0  0  0  0  0  0  0  0  0  0  0  0
    2.8477    1.4997    0.6926 H   0  0  0  0  0  0  0  0  0  0  0  0
    1.3176    1.2425    1.5553 H   0  0  0  0  0  0  0  0  0  0  0  0
    1.5130    1.9543   -1.4443 H   0  0  0  0  0  0  0  0  0  0  0  0
    1.4516    3.1667   -0.1666 H   0  0  0  0  0  0  0  0  0  0  0  0
   -3.0187    1.9047    0.0281 H   0  0  0  0  0  0  0  0  0  0  0  0
   -2.7340    1.4920   -1.7032 H   0  0  0  0  0  0  0  0  0  0  0  0
   -3.3123    0.2496   -0.5320 H   0  0  0  0  0  0  0  0  0  0  0  0
    2.9591   -1.4453   -1.5166 H   0  0  0  0  0  0  0  0  0  0  0  0
    3.7669    0.0798   -1.0372 H   0  0  0  0  0  0  0  0  0  0  0  0
    2.3141    0.0965   -2.1031 H   0  0  0  0  0  0  0  0  0  0  0  0
    3.6107   -0.7161    1.3545 H   0  0  0  0  0  0  0  0  0  0  0  0
    2.7309   -2.1951    0.8377 H   0  0  0  0  0  0  0  0  0  0  0  0
    2.0304   -1.1164    2.0967 H   0  0  0  0  0  0  0  0  0  0  0  0
   -1.7783    1.6518    2.2677 H   0  0  0  0  0  0  0  0  0  0  0  0
   -1.2533    0.0714    3.1077 H   0  0  0  0  0  0  0  0  0  0  0  0
  1  2  1  6  0  0  0
  1  5  1  0  0  0  0
  1 16  1  0  0  0  0
  2  3  1  1  0  0  0
  2  6  1  0  0  0  0
  2 17  1  0  0  0  0
  3  7  1  0  0  0  0
  3  9  1  0  0  0  0
  3 12  1  6  0  0  0
  4  1  1  6  0  0  0
  4  7  1  0  0  0  0
  4  8  1  0  0  0  0
  4 18  1  0  0  0  0
  5 10  1  0  0  0  0
  5 13  1  0  0  0  0
  5 14  1  0  0  0  0
  6  8  1  0  0  0  0
  6 19  1  0  0  0  0
  6 20  1  0  0  0  0
  7 15  2  0  0  0  0
  8 21  1  0  0  0  0
  8 22  1  0  0  0  0
  9 11  1  0  0  0  0
  9 23  1  0  0  0  0
  9 24  1  0  0  0  0
 10 11  1  0  0  0  0
 10 25  1  0  0  0  0
 10 26  1  0  0  0  0
 11 27  1  0  0  0  0
 11 28  1  0  0  0  0
 12 29  1  0  0  0  0
 12 30  1  0  0  0  0
 12 31  1  0  0  0  0
 13 32  1  0  0  0  0
 13 33  1  0  0  0  0
 13 34  1  0  0  0  0
 14 35  1  0  0  0  0
 14 36  1  0  0  0  0
 14 37  1  0  0  0  0
 15 38  1  0  0  0  0
 15 39  1  0  0  0  0
M  END
