
 OpenBabel09232613023D

 36 36  0  0  1  0  0  0  0  0999 V2000
    2.0628   -2.1979   -0.1838 O   0  0  0  0  0  0  0  0  0  0  0  0
   -4.2551    0.5511   -0.5509 O   0  0  0  0  0  0  0  0  0  0  0  0
   -3.0840    1.4273    1.1529 O   0  0  0  0  0  0  0  0  0  0  0  0
   -0.8349   -0.1817    0.0469 C   0  0  2  0  0  0  0  0  0  0  0  0
    0.5037   -0.4254   -0.6855 C   0  0  2  0  0  0  0  0  0  0  0  0
   -1.3615   -1.5967    0.2607 C   0  0  0  0  0  0  0  0  0  0  0  0
   -0.1296   -2.3522    0.7566 C   0  0  0  0  0  0  0  0  0  0  0  0
    0.9541   -1.7066   -0.0404 C   0  0  0  0  0  0  0  0  0  0  0  0
   -1.7985    0.7502   -0.7097 C   0  0  0  0  0  0  0  0  0  0  0  0
    1.4759    0.7563   -0.4940 C   0  0  0  0  0  0  0  0  0  0  0  0
    2.7793    0.5062   -1.2158 C   0  0  0  0  0  0  0  0  0  0  0  0
   -3.0912    0.9330    0.0334 C   0  0  0  0  0  0  0  0  0  0  0  0
    3.9994    0.4793   -0.6457 C   0  0  0  0  0  0  0  0  0  0  0  0
    4.2943    0.7328    0.8116 C   0  0  0  0  0  0  0  0  0  0  0  0
   -5.4908    0.6724    0.0477 C   0  0  0  0  0  0  0  0  0  0  0  0
    4.0874    2.1991    1.1975 C   0  0  0  0  0  0  0  0  0  0  0  0
   -0.6243    0.2357    1.0609 H   0  0  0  0  0  0  0  0  0  0  0  0
    0.3530   -0.6319   -1.7693 H   0  0  0  0  0  0  0  0  0  0  0  0
   -1.6442   -2.0054   -0.7379 H   0  0  0  0  0  0  0  0  0  0  0  0
   -2.2381   -1.6849    0.9373 H   0  0  0  0  0  0  0  0  0  0  0  0
   -0.2576   -3.4367    0.5523 H   0  0  0  0  0  0  0  0  0  0  0  0
    0.0836   -2.1770    1.8332 H   0  0  0  0  0  0  0  0  0  0  0  0
   -2.0078    0.3250   -1.7156 H   0  0  0  0  0  0  0  0  0  0  0  0
   -1.3309    1.7478   -0.8451 H   0  0  0  0  0  0  0  0  0  0  0  0
    1.6204    0.9187    0.5917 H   0  0  0  0  0  0  0  0  0  0  0  0
    1.0285    1.6738   -0.9293 H   0  0  0  0  0  0  0  0  0  0  0  0
    2.7195    0.3132   -2.2834 H   0  0  0  0  0  0  0  0  0  0  0  0
    4.8454    0.2423   -1.2849 H   0  0  0  0  0  0  0  0  0  0  0  0
    3.6864    0.0560    1.4493 H   0  0  0  0  0  0  0  0  0  0  0  0
    5.3660    0.5011    0.9933 H   0  0  0  0  0  0  0  0  0  0  0  0
    3.0420    2.5332    1.0554 H   0  0  0  0  0  0  0  0  0  0  0  0
    4.3530    2.3389    2.2665 H   0  0  0  0  0  0  0  0  0  0  0  0
    4.7476    2.8480    0.5832 H   0  0  0  0  0  0  0  0  0  0  0  0
   -6.2690    0.2873   -0.6428 H   0  0  0  0  0  0  0  0  0  0  0  0
   -5.7057    1.7397    0.2698 H   0  0  0  0  0  0  0  0  0  0  0  0
   -5.5207    0.0798    0.9871 H   0  0  0  0  0  0  0  0  0  0  0  0
  1  8  2  0  0  0  0
  2 12  1  0  0  0  0
  2 15  1  0  0  0  0
  3 12  2  0  0  0  0
  4  5  1  6  0  0  0
  4  6  1  0  0  0  0
  4  9  1  0  0  0  0
  4 17  1  0  0  0  0
  5  8  1  0  0  0  0
  5 10  1  0  0  0  0
  5 18  1  6  0  0  0
  6  7  1  0  0  0  0
  6 19  1  0  0  0  0
  6 20  1  0  0  0  0
  7  8  1  0  0  0  0
  7 21  1  0  0  0  0
  7 22  1  0  0  0  0
  9 12  1  0  0  0  0
  9 23  1  0  0  0  0
  9 24  1  0  0  0  0
 10 11  1  0  0  0  0
 10 25  1  0  0  0  0
 10 26  1  0  0  0  0
 11 13  2  0  0  0  0
 11 27  1  0  0  0  0
 13 14  1  0  0  0  0
 13 28  1  0  0  0  0
 14 16  1  0  0  0  0
 14 29  1  0  0  0  0
 14 30  1  0  0  0  0
 15 34  1  0  0  0  0
 15 35  1  0  0  0  0
 15 36  1  0  0  0  0
 16 31  1  0  0  0  0
 16 32  1  0  0  0  0
 16 33  1  0  0  0  0
M  END
