
 OpenBabel09232613043D

 34 33  0  0  0  0  0  0  0  0999 V2000
   -2.6858    0.0371   -0.0819 O   0  0  0  0  0  0  0  0  0  0  0  0
   -2.7637   -2.1531    0.4105 O   0  0  0  0  0  0  0  0  0  0  0  0
    1.0840    1.4548   -0.6412 C   0  0  0  0  0  0  0  0  0  0  0  0
    1.8701    0.7617    0.4838 C   0  0  0  0  0  0  0  0  0  0  0  0
   -0.0616    2.2905   -0.1020 C   0  0  0  0  0  0  0  0  0  0  0  0
    3.0258   -0.0170   -0.1025 C   0  0  0  0  0  0  0  0  0  0  0  0
   -1.1823    1.7608    0.4474 C   0  0  0  0  0  0  0  0  0  0  0  0
    0.0703    3.7900   -0.2031 C   0  0  0  0  0  0  0  0  0  0  0  0
    3.2508   -1.3516   -0.0037 C   0  0  0  0  0  0  0  0  0  0  0  0
   -1.4973    0.2922    0.5702 C   0  0  0  0  0  0  0  0  0  0  0  0
    4.4745   -1.9392   -0.6615 C   0  0  0  0  0  0  0  0  0  0  0  0
    2.3587   -2.3333    0.7229 C   0  0  0  0  0  0  0  0  0  0  0  0
   -3.2742   -1.1846   -0.1355 C   0  0  0  0  0  0  0  0  0  0  0  0
   -4.5642   -1.3410   -0.8744 C   0  0  0  0  0  0  0  0  0  0  0  0
    1.7992    2.1190   -1.1760 H   0  0  0  0  0  0  0  0  0  0  0  0
    0.6969    0.7240   -1.3838 H   0  0  0  0  0  0  0  0  0  0  0  0
    1.2001    0.1447    1.0958 H   0  0  0  0  0  0  0  0  0  0  0  0
    2.2869    1.5346    1.1649 H   0  0  0  0  0  0  0  0  0  0  0  0
    3.7409    0.5836   -0.6594 H   0  0  0  0  0  0  0  0  0  0  0  0
   -1.9496    2.4330    0.8228 H   0  0  0  0  0  0  0  0  0  0  0  0
    0.1807    4.0817   -1.2686 H   0  0  0  0  0  0  0  0  0  0  0  0
    0.9703    4.1196    0.3573 H   0  0  0  0  0  0  0  0  0  0  0  0
   -0.8111    4.3245    0.2117 H   0  0  0  0  0  0  0  0  0  0  0  0
   -1.6050    0.0461    1.6487 H   0  0  0  0  0  0  0  0  0  0  0  0
   -0.7113   -0.3539    0.1332 H   0  0  0  0  0  0  0  0  0  0  0  0
    4.1651   -2.6977   -1.4109 H   0  0  0  0  0  0  0  0  0  0  0  0
    5.0907   -1.1739   -1.1804 H   0  0  0  0  0  0  0  0  0  0  0  0
    5.1093   -2.4293    0.1062 H   0  0  0  0  0  0  0  0  0  0  0  0
    2.9439   -2.8332    1.5229 H   0  0  0  0  0  0  0  0  0  0  0  0
    1.4601   -1.9037    1.1935 H   0  0  0  0  0  0  0  0  0  0  0  0
    2.0104   -3.1054    0.0052 H   0  0  0  0  0  0  0  0  0  0  0  0
   -4.4191   -1.0552   -1.9369 H   0  0  0  0  0  0  0  0  0  0  0  0
   -5.3331   -0.6817   -0.4204 H   0  0  0  0  0  0  0  0  0  0  0  0
   -4.9198   -2.3927   -0.8297 H   0  0  0  0  0  0  0  0  0  0  0  0
  1 10  1  0  0  0  0
  1 13  1  0  0  0  0
  2 13  2  0  0  0  0
  3  4  1  0  0  0  0
  3  5  1  0  0  0  0
  3 15  1  0  0  0  0
  3 16  1  0  0  0  0
  4  6  1  0  0  0  0
  4 17  1  0  0  0  0
  4 18  1  0  0  0  0
  5  7  2  0  0  0  0
  5  8  1  0  0  0  0
  6  9  2  0  0  0  0
  6 19  1  0  0  0  0
  7 10  1  0  0  0  0
  7 20  1  0  0  0  0
  8 21  1  0  0  0  0
  8 22  1  0  0  0  0
  8 23  1  0  0  0  0
  9 11  1  0  0  0  0
  9 12  1  0  0  0  0
 10 24  1  0  0  0  0
 10 25  1  0  0  0  0
 11 26  1  0  0  0  0
 11 27  1  0  0  0  0
 11 28  1  0  0  0  0
 12 29  1  0  0  0  0
 12 30  1  0  0  0  0
 12 31  1  0  0  0  0
 13 14  1  0  0  0  0
 14 32  1  0  0  0  0
 14 33  1  0  0  0  0
 14 34  1  0  0  0  0
M  END
