
 OpenBabel09242609343D

 28 28  0  0  0  0  0  0  0  0999 V2000
    0.8410   -1.9324    0.1577 O   0  0  0  0  0  0  0  0  0  0  0  0
    2.2192    0.5782    0.0316 C   0  0  0  0  0  0  0  0  0  0  0  0
    0.7003    0.4567    0.0885 C   0  0  0  0  0  0  0  0  0  0  0  0
    0.0714   -0.8104    0.1498 C   0  0  0  0  0  0  0  0  0  0  0  0
    2.7545    1.3347    1.2541 C   0  0  0  0  0  0  0  0  0  0  0  0
    2.6662    1.2565   -1.2698 C   0  0  0  0  0  0  0  0  0  0  0  0
   -0.0987    1.6174    0.0804 C   0  0  0  0  0  0  0  0  0  0  0  0
   -2.1167    0.2819    0.1924 C   0  0  0  0  0  0  0  0  0  0  0  0
   -1.3376   -0.8815    0.2013 C   0  0  0  0  0  0  0  0  0  0  0  0
   -1.4894    1.5305    0.1317 C   0  0  0  0  0  0  0  0  0  0  0  0
   -3.6127    0.1765    0.2480 C   0  0  0  0  0  0  0  0  0  0  0  0
    0.3868   -3.2337    0.2141 C   0  0  0  0  0  0  0  0  0  0  0  0
    2.6879   -0.4288    0.0464 H   0  0  0  0  0  0  0  0  0  0  0  0
    2.3656    2.3740    1.2909 H   0  0  0  0  0  0  0  0  0  0  0  0
    3.8641    1.3784    1.2203 H   0  0  0  0  0  0  0  0  0  0  0  0
    2.4562    0.8078    2.1857 H   0  0  0  0  0  0  0  0  0  0  0  0
    2.3048    0.6737   -2.1439 H   0  0  0  0  0  0  0  0  0  0  0  0
    3.7754    1.2998   -1.3163 H   0  0  0  0  0  0  0  0  0  0  0  0
    2.2735    2.2924   -1.3435 H   0  0  0  0  0  0  0  0  0  0  0  0
    0.3537    2.5993    0.0341 H   0  0  0  0  0  0  0  0  0  0  0  0
   -1.8398   -1.8390    0.2485 H   0  0  0  0  0  0  0  0  0  0  0  0
   -2.0754    2.4412    0.1239 H   0  0  0  0  0  0  0  0  0  0  0  0
   -3.9787   -0.4012   -0.6268 H   0  0  0  0  0  0  0  0  0  0  0  0
   -3.9155   -0.3451    1.1803 H   0  0  0  0  0  0  0  0  0  0  0  0
   -4.0945    1.1773    0.2338 H   0  0  0  0  0  0  0  0  0  0  0  0
   -0.2494   -3.4571   -0.6687 H   0  0  0  0  0  0  0  0  0  0  0  0
   -0.1856   -3.4005    1.1514 H   0  0  0  0  0  0  0  0  0  0  0  0
    1.2571   -3.9213    0.2050 H   0  0  0  0  0  0  0  0  0  0  0  0
  1  4  1  0  0  0  0
  1 12  1  0  0  0  0
  2  3  1  0  0  0  0
  2  5  1  0  0  0  0
  2  6  1  0  0  0  0
  2 13  1  0  0  0  0
  3  4  2  0  0  0  0
  3  7  1  0  0  0  0
  4  9  1  0  0  0  0
  5 14  1  0  0  0  0
  5 15  1  0  0  0  0
  5 16  1  0  0  0  0
  6 17  1  0  0  0  0
  6 18  1  0  0  0  0
  6 19  1  0  0  0  0
  7 10  2  0  0  0  0
  7 20  1  0  0  0  0
  8  9  2  0  0  0  0
  8 10  1  0  0  0  0
  8 11  1  0  0  0  0
  9 21  1  0  0  0  0
 10 22  1  0  0  0  0
 11 23  1  0  0  0  0
 11 24  1  0  0  0  0
 11 25  1  0  0  0  0
 12 26  1  0  0  0  0
 12 27  1  0  0  0  0
 12 28  1  0  0  0  0
M  END
