
 OpenBabel09152609483D

 21 20  0  0  0  0  0  0  0  0999 V2000
    1.1613    0.2115   -0.1595 S   0  0  0  0  0  0  0  0  0  0  0  0
   -1.2509    1.8658    0.2010 S   0  0  0  0  0  0  0  0  0  0  0  0
    3.2764   -1.3290   -0.0321 F   0  0  0  0  0  0  0  0  0  0  0  0
    3.6195    0.7120   -0.9140 F   0  0  0  0  0  0  0  0  0  0  0  0
   -1.5476    4.3959    0.8099 F   0  0  0  0  0  0  0  0  0  0  0  0
   -1.8246    3.8859   -1.3646 F   0  0  0  0  0  0  0  0  0  0  0  0
    3.0934    1.8755    1.5705 F   0  0  0  0  0  0  0  0  0  0  0  0
    2.7464   -0.1702    2.4532 F   0  0  0  0  0  0  0  0  0  0  0  0
    4.7574    0.3620    1.5964 F   0  0  0  0  0  0  0  0  0  0  0  0
   -4.1381    2.4535   -0.7358 F   0  0  0  0  0  0  0  0  0  0  0  0
   -3.8597    2.9639    1.4430 F   0  0  0  0  0  0  0  0  0  0  0  0
   -4.1713    4.6007   -0.0676 F   0  0  0  0  0  0  0  0  0  0  0  0
    0.7095   -0.2721   -1.5460 O   0  0  0  0  0  0  0  0  0  0  0  0
    0.3347   -0.6743    0.7867 O   0  0  0  0  0  0  0  0  0  0  0  0
   -1.7968    0.7498   -0.7044 O   0  0  0  0  0  0  0  0  0  0  0  0
   -1.4852    1.3063    1.6129 O   0  0  0  0  0  0  0  0  0  0  0  0
    0.5136    1.8607   -0.0119 N   0  5  0  0  0  0  0  0  0  0  0  0
    2.9571    0.0125    0.0786 C   0  0  0  0  0  0  0  0  0  0  0  0
   -2.0768    3.4689   -0.0700 C   0  0  0  0  0  0  0  0  0  0  0  0
    3.3924    0.5301    1.4499 C   0  0  0  0  0  0  0  0  0  0  0  0
   -3.5876    3.3652    0.1473 C   0  0  0  0  0  0  0  0  0  0  0  0
  1 13  2  0  0  0  0
  1 14  2  0  0  0  0
  1 17  1  0  0  0  0
  1 18  1  0  0  0  0
  2 15  2  0  0  0  0
  2 16  2  0  0  0  0
  2 17  1  0  0  0  0
  2 19  1  0  0  0  0
  3 18  1  0  0  0  0
  4 18  1  0  0  0  0
  5 19  1  0  0  0  0
  6 19  1  0  0  0  0
  7 20  1  0  0  0  0
  8 20  1  0  0  0  0
  9 20  1  0  0  0  0
 10 21  1  0  0  0  0
 11 21  1  0  0  0  0
 12 21  1  0  0  0  0
 18 20  1  0  0  0  0
 19 21  1  0  0  0  0
M  CHG  1  17  -1
M  END
