
 OpenBabel09292614473D

 28 28  0  0  0  0  0  0  0  0999 V2000
   -0.2793   -0.4827    0.4615 N   0  0  0  0  0  0  0  0  0  0  0  0
   -2.3367    0.0303   -0.2401 N   0  3  0  0  0  0  0  0  0  0  0  0
    1.1128   -0.4132    0.9226 C   0  0  0  0  0  0  0  0  0  0  0  0
    2.0701    0.0054   -0.2010 C   0  0  0  0  0  0  0  0  0  0  0  0
   -1.1203    0.5191    0.0982 C   0  0  0  0  0  0  0  0  0  0  0  0
    3.5221    0.0097    0.2921 C   0  0  0  0  0  0  0  0  0  0  0  0
   -0.9957   -1.6213    0.3533 C   0  0  0  0  0  0  0  0  0  0  0  0
   -2.2625   -1.3055   -0.0858 C   0  0  0  0  0  0  0  0  0  0  0  0
   -0.7711    1.9827    0.1017 C   0  0  0  0  0  0  0  0  0  0  0  0
   -3.5136    0.7750   -0.6799 C   0  0  0  0  0  0  0  0  0  0  0  0
    4.4827    0.4118   -0.8235 C   0  0  0  0  0  0  0  0  0  0  0  0
    1.1824    0.2785    1.7896 H   0  0  0  0  0  0  0  0  0  0  0  0
    1.4309   -1.4229    1.2667 H   0  0  0  0  0  0  0  0  0  0  0  0
    1.8243    1.0171   -0.5685 H   0  0  0  0  0  0  0  0  0  0  0  0
    1.9700   -0.7131   -1.0440 H   0  0  0  0  0  0  0  0  0  0  0  0
    3.6280    0.7288    1.1336 H   0  0  0  0  0  0  0  0  0  0  0  0
    3.7988   -1.0050    0.6531 H   0  0  0  0  0  0  0  0  0  0  0  0
   -0.6255   -2.6137    0.5769 H   0  0  0  0  0  0  0  0  0  0  0  0
   -3.0712   -2.0007   -0.2712 H   0  0  0  0  0  0  0  0  0  0  0  0
   -0.4433    2.2830    1.1183 H   0  0  0  0  0  0  0  0  0  0  0  0
    0.0280    2.2004   -0.6292 H   0  0  0  0  0  0  0  0  0  0  0  0
   -1.6418    2.6078   -0.1796 H   0  0  0  0  0  0  0  0  0  0  0  0
   -3.2789    1.3304   -1.6121 H   0  0  0  0  0  0  0  0  0  0  0  0
   -4.3607    0.0851   -0.8821 H   0  0  0  0  0  0  0  0  0  0  0  0
   -3.8223    1.4907    0.1108 H   0  0  0  0  0  0  0  0  0  0  0  0
    4.2444    1.4334   -1.1891 H   0  0  0  0  0  0  0  0  0  0  0  0
    4.4129   -0.3044   -1.6698 H   0  0  0  0  0  0  0  0  0  0  0  0
    5.5241    0.4063   -0.4381 H   0  0  0  0  0  0  0  0  0  0  0  0
  1  3  1  0  0  0  0
  1  5  1  0  0  0  0
  1  7  1  0  0  0  0
  2  5  2  0  0  0  0
  2  8  1  0  0  0  0
  2 10  1  0  0  0  0
  3  4  1  0  0  0  0
  3 12  1  0  0  0  0
  3 13  1  0  0  0  0
  4  6  1  0  0  0  0
  4 14  1  0  0  0  0
  4 15  1  0  0  0  0
  5  9  1  0  0  0  0
  6 11  1  0  0  0  0
  6 16  1  0  0  0  0
  6 17  1  0  0  0  0
  7  8  2  0  0  0  0
  7 18  1  0  0  0  0
  8 19  1  0  0  0  0
  9 20  1  0  0  0  0
  9 21  1  0  0  0  0
  9 22  1  0  0  0  0
 10 23  1  0  0  0  0
 10 24  1  0  0  0  0
 10 25  1  0  0  0  0
 11 26  1  0  0  0  0
 11 27  1  0  0  0  0
 11 28  1  0  0  0  0
M  CHG  1   2   1
M  END
