
 OpenBabel09092614423D

 26 27  0  0  0  0  0  0  0  0999 V2000
   -1.4302    3.6523   -0.9573 C   0  0  0  0  0  0  0  0  0  0  0  0
   -0.4455    2.7777   -0.3706 N   0  0  0  0  0  0  0  0  0  0  0  0
   -0.7214    1.5398    0.3058 C   0  0  0  0  0  0  0  0  0  0  0  0
    0.5563    1.0186    0.7144 N   0  0  0  0  0  0  0  0  0  0  0  0
    0.7789   -0.2151    1.4346 C   0  0  0  0  0  0  0  0  0  0  0  0
    0.2894   -1.3875    0.6267 C   0  0  0  0  0  0  0  0  0  0  0  0
   -0.7290   -2.2216    1.1188 C   0  0  0  0  0  0  0  0  0  0  0  0
   -1.1770   -3.3081    0.3607 C   0  0  0  0  0  0  0  0  0  0  0  0
   -0.6128   -3.5699   -0.8909 C   0  0  0  0  0  0  0  0  0  0  0  0
    0.4010   -2.7458   -1.3867 C   0  0  0  0  0  0  0  0  0  0  0  0
    0.8521   -1.6585   -0.6321 C   0  0  0  0  0  0  0  0  0  0  0  0
    1.5520    1.9265    0.2945 C   0  0  0  0  0  0  0  0  0  0  0  0
    0.9503    2.9824   -0.3579 C   0  0  0  0  0  0  0  0  0  0  0  0
   -0.9409    4.5384   -1.4146 H   0  0  0  0  0  0  0  0  0  0  0  0
   -2.1369    3.9958   -0.1733 H   0  0  0  0  0  0  0  0  0  0  0  0
   -1.9920    3.1056   -1.7432 H   0  0  0  0  0  0  0  0  0  0  0  0
   -1.7164    1.0769    0.4737 H   0  0  0  0  0  0  0  0  0  0  0  0
    1.8634   -0.3496    1.6391 H   0  0  0  0  0  0  0  0  0  0  0  0
    0.2525   -0.1563    2.4118 H   0  0  0  0  0  0  0  0  0  0  0  0
   -1.1770   -2.0324    2.0863 H   0  0  0  0  0  0  0  0  0  0  0  0
   -1.9621   -3.9473    0.7436 H   0  0  0  0  0  0  0  0  0  0  0  0
   -0.9610   -4.4112   -1.4760 H   0  0  0  0  0  0  0  0  0  0  0  0
    0.8377   -2.9495   -2.3559 H   0  0  0  0  0  0  0  0  0  0  0  0
    1.6386   -1.0273   -1.0273 H   0  0  0  0  0  0  0  0  0  0  0  0
    2.6148    1.8074    0.4594 H   0  0  0  0  0  0  0  0  0  0  0  0
    1.4609    3.8324   -0.7913 H   0  0  0  0  0  0  0  0  0  0  0  0
  1  2  1  0  0  0  0
  1 15  1  0  0  0  0
  2  3  1  0  0  0  0
  3  4  1  0  0  0  0
  3 17  1  0  0  0  0
  4  5  1  0  0  0  0
  5 18  1  0  0  0  0
  5 19  1  0  0  0  0
  6  7  1  0  0  0  0
  6  5  1  0  0  0  0
  7 20  1  0  0  0  0
  8 21  1  0  0  0  0
  8  7  2  0  0  0  0
  9  8  1  0  0  0  0
 10  9  2  0  0  0  0
 10 11  1  0  0  0  0
 11  6  2  0  0  0  0
 12  4  1  0  0  0  0
 13  2  1  0  0  0  0
 13 12  2  0  0  0  0
 14  1  1  0  0  0  0
 16  1  1  0  0  0  0
 22  9  1  0  0  0  0
 23 10  1  0  0  0  0
 24 11  1  0  0  0  0
 25 12  1  0  0  0  0
 26 13  1  0  0  0  0
M  END
