
 OpenBabel09152609503D

 31 30  0  0  0  0  0  0  0  0999 V2000
    0.0112    1.8873    0.1106 P   0  0  0  0  0  0  0  0  0  0  0  0
    1.2773    0.9322    0.8488 O   0  0  0  0  0  0  0  0  0  0  0  0
   -1.1641    0.9138   -0.7412 O   0  0  0  0  0  0  0  0  0  0  0  0
   -0.7509    2.9284    1.2723 O   0  5  0  0  0  0  0  0  0  0  0  0
    0.6772    2.8238   -0.9334 O   0  0  0  0  0  0  0  0  0  0  0  0
    2.9177   -0.7658    0.4959 C   0  0  0  0  0  0  0  0  0  0  0  0
   -2.8376   -0.7723   -0.5121 C   0  0  0  0  0  0  0  0  0  0  0  0
    3.5646   -1.6940   -0.5389 C   0  0  0  0  0  0  0  0  0  0  0  0
   -3.6247   -1.6361    0.4804 C   0  0  0  0  0  0  0  0  0  0  0  0
    1.8349    0.1040   -0.1416 C   0  0  0  0  0  0  0  0  0  0  0  0
   -1.8553    0.1469    0.2126 C   0  0  0  0  0  0  0  0  0  0  0  0
    4.6448   -2.5622    0.0995 C   0  0  0  0  0  0  0  0  0  0  0  0
   -4.6045   -2.5537   -0.2449 C   0  0  0  0  0  0  0  0  0  0  0  0
    3.6959   -0.1072    0.9409 H   0  0  0  0  0  0  0  0  0  0  0  0
    2.4608   -1.3759    1.3062 H   0  0  0  0  0  0  0  0  0  0  0  0
   -3.5449   -0.1513   -1.1050 H   0  0  0  0  0  0  0  0  0  0  0  0
   -2.2712   -1.4303   -1.2077 H   0  0  0  0  0  0  0  0  0  0  0  0
    4.0245   -1.0876   -1.3495 H   0  0  0  0  0  0  0  0  0  0  0  0
    2.7896   -2.3556   -0.9841 H   0  0  0  0  0  0  0  0  0  0  0  0
   -4.1941   -0.9817    1.1761 H   0  0  0  0  0  0  0  0  0  0  0  0
   -2.9208   -2.2602    1.0732 H   0  0  0  0  0  0  0  0  0  0  0  0
    2.3066    0.7187   -0.9414 H   0  0  0  0  0  0  0  0  0  0  0  0
    1.0598   -0.5703   -0.5712 H   0  0  0  0  0  0  0  0  0  0  0  0
   -2.4331    0.8103    0.8954 H   0  0  0  0  0  0  0  0  0  0  0  0
   -1.1487   -0.4912    0.7915 H   0  0  0  0  0  0  0  0  0  0  0  0
    5.4449   -1.9257    0.5340 H   0  0  0  0  0  0  0  0  0  0  0  0
    4.2074   -3.1962    0.9001 H   0  0  0  0  0  0  0  0  0  0  0  0
    5.0951   -3.2228   -0.6710 H   0  0  0  0  0  0  0  0  0  0  0  0
   -5.3349   -1.9542   -0.8290 H   0  0  0  0  0  0  0  0  0  0  0  0
   -4.0589   -3.2351   -0.9321 H   0  0  0  0  0  0  0  0  0  0  0  0
   -5.1595   -3.1663    0.4965 H   0  0  0  0  0  0  0  0  0  0  0  0
  1  2  1  0  0  0  0
  1  3  1  0  0  0  0
  1  4  1  0  0  0  0
  1  5  2  0  0  0  0
  2 10  1  0  0  0  0
  3 11  1  0  0  0  0
  6  8  1  0  0  0  0
  6 10  1  0  0  0  0
  6 14  1  0  0  0  0
  6 15  1  0  0  0  0
  7  9  1  0  0  0  0
  7 11  1  0  0  0  0
  7 16  1  0  0  0  0
  7 17  1  0  0  0  0
  8 12  1  0  0  0  0
  8 18  1  0  0  0  0
  8 19  1  0  0  0  0
  9 13  1  0  0  0  0
  9 20  1  0  0  0  0
  9 21  1  0  0  0  0
 10 22  1  0  0  0  0
 10 23  1  0  0  0  0
 11 24  1  0  0  0  0
 11 25  1  0  0  0  0
 12 26  1  0  0  0  0
 12 27  1  0  0  0  0
 12 28  1  0  0  0  0
 13 29  1  0  0  0  0
 13 30  1  0  0  0  0
 13 31  1  0  0  0  0
M  CHG  1   4  -1
M  END
