
 OpenBabel09152609503D

 19 18  0  0  0  0  0  0  0  0999 V2000
   -0.0204    0.9487   -0.0854 P   0  0  0  0  0  0  0  0  0  0  0  0
   -1.3387   -0.0155   -0.7115 O   0  0  0  0  0  0  0  0  0  0  0  0
    1.2231   -0.0141    0.6767 O   0  0  0  0  0  0  0  0  0  0  0  0
    0.6416    1.9829   -1.3128 O   0  5  0  0  0  0  0  0  0  0  0  0
   -0.6031    1.8920    1.0014 O   0  0  0  0  0  0  0  0  0  0  0  0
   -1.8142   -0.8331    0.3288 C   0  0  0  0  0  0  0  0  0  0  0  0
    1.8451   -0.7775   -0.3259 C   0  0  0  0  0  0  0  0  0  0  0  0
   -2.9456   -1.7000   -0.2019 C   0  0  0  0  0  0  0  0  0  0  0  0
    2.8915   -1.6764    0.3147 C   0  0  0  0  0  0  0  0  0  0  0  0
   -1.0135   -1.5125    0.6978 H   0  0  0  0  0  0  0  0  0  0  0  0
   -2.2203   -0.2161    1.1614 H   0  0  0  0  0  0  0  0  0  0  0  0
    1.1078   -1.4330   -0.8426 H   0  0  0  0  0  0  0  0  0  0  0  0
    2.3629   -0.1168   -1.0570 H   0  0  0  0  0  0  0  0  0  0  0  0
   -3.3325   -2.3520    0.6096 H   0  0  0  0  0  0  0  0  0  0  0  0
   -3.7733   -1.0597   -0.5747 H   0  0  0  0  0  0  0  0  0  0  0  0
   -2.5778   -2.3391   -1.0327 H   0  0  0  0  0  0  0  0  0  0  0  0
    3.3933   -2.2856   -0.4666 H   0  0  0  0  0  0  0  0  0  0  0  0
    3.6547   -1.0607    0.8365 H   0  0  0  0  0  0  0  0  0  0  0  0
    2.4101   -2.3575    1.0484 H   0  0  0  0  0  0  0  0  0  0  0  0
  1  2  1  0  0  0  0
  1  3  1  0  0  0  0
  1  4  1  0  0  0  0
  1  5  2  0  0  0  0
  2  6  1  0  0  0  0
  3  7  1  0  0  0  0
  6  8  1  0  0  0  0
  6 10  1  0  0  0  0
  6 11  1  0  0  0  0
  7  9  1  0  0  0  0
  7 12  1  0  0  0  0
  7 13  1  0  0  0  0
  8 14  1  0  0  0  0
  8 15  1  0  0  0  0
  8 16  1  0  0  0  0
  9 17  1  0  0  0  0
  9 18  1  0  0  0  0
  9 19  1  0  0  0  0
M  CHG  1   4  -1
M  END
