
 OpenBabel09092614593D

 49 49  0  0  0  0  0  0  0  0999 V2000
   -2.1648    6.9103   -0.6214 C   0  0  0  0  0  0  0  0  0  0  0  0
   -1.9162    5.4449   -0.2762 C   0  0  0  0  0  0  0  0  0  0  0  0
   -0.4283    5.1827   -0.0135 C   0  0  0  0  0  0  0  0  0  0  0  0
   -0.1800    3.7084    0.3328 C   0  0  0  0  0  0  0  0  0  0  0  0
    1.3121    3.4603    0.6163 C   0  0  0  0  0  0  0  0  0  0  0  0
    1.6628    2.0388    1.1011 C   0  0  0  0  0  0  0  0  0  0  0  0
    1.7889    0.9197    0.0449 C   0  0  0  0  0  0  0  0  0  0  0  0
    0.4958    0.5223   -0.6800 C   0  0  0  0  0  0  0  0  0  0  0  0
    0.6813   -0.6870   -1.6135 C   0  0  0  0  0  0  0  0  0  0  0  0
    1.1977   -2.0388   -1.0292 C   0  0  0  0  0  0  0  0  0  0  0  0
    0.3377   -2.7839   -0.0425 N   0  0  0  0  0  0  0  0  0  0  0  0
    0.4971   -2.1967    1.3172 C   0  0  0  0  0  0  0  0  0  0  0  0
   -1.0887   -2.7889   -0.4752 C   0  0  0  0  0  0  0  0  0  0  0  0
   -1.9439   -3.7830    0.3361 C   0  0  0  0  0  0  0  0  0  0  0  0
   -1.4293   -5.0944    0.2222 O   0  0  0  0  0  0  0  0  0  0  0  0
   -0.1266   -5.1359    0.7683 C   0  0  0  0  0  0  0  0  0  0  0  0
    0.8185   -4.2012   -0.0154 C   0  0  0  0  0  0  0  0  0  0  0  0
   -3.2480    7.0707   -0.8061 H   0  0  0  0  0  0  0  0  0  0  0  0
   -1.8466    7.5643    0.2183 H   0  0  0  0  0  0  0  0  0  0  0  0
   -1.6024    7.1921   -1.5371 H   0  0  0  0  0  0  0  0  0  0  0  0
   -2.2637    4.8135   -1.1229 H   0  0  0  0  0  0  0  0  0  0  0  0
   -2.5069    5.1845    0.6291 H   0  0  0  0  0  0  0  0  0  0  0  0
   -0.0891    5.8227    0.8309 H   0  0  0  0  0  0  0  0  0  0  0  0
    0.1571    5.4488   -0.9214 H   0  0  0  0  0  0  0  0  0  0  0  0
   -0.5462    3.1024   -0.5080 H   0  0  0  0  0  0  0  0  0  0  0  0
   -0.7679    3.4448    1.2394 H   0  0  0  0  0  0  0  0  0  0  0  0
    1.5763    4.1444    1.4536 H   0  0  0  0  0  0  0  0  0  0  0  0
    1.9465    3.7323   -0.2551 H   0  0  0  0  0  0  0  0  0  0  0  0
    2.6796    2.1144    1.5471 H   0  0  0  0  0  0  0  0  0  0  0  0
    0.9724    1.7352    1.9181 H   0  0  0  0  0  0  0  0  0  0  0  0
    2.5616    1.1973   -0.7049 H   0  0  0  0  0  0  0  0  0  0  0  0
    2.1616    0.0354    0.6002 H   0  0  0  0  0  0  0  0  0  0  0  0
    0.1865    1.3511   -1.3390 H   0  0  0  0  0  0  0  0  0  0  0  0
   -0.3294    0.3452    0.0320 H   0  0  0  0  0  0  0  0  0  0  0  0
   -0.2743   -0.8577   -2.1531 H   0  0  0  0  0  0  0  0  0  0  0  0
    1.4208   -0.3797   -2.3866 H   0  0  0  0  0  0  0  0  0  0  0  0
    1.3214   -2.6628   -1.9445 H   0  0  0  0  0  0  0  0  0  0  0  0
    2.2274   -1.9108   -0.6277 H   0  0  0  0  0  0  0  0  0  0  0  0
    0.1000   -1.1756    1.3900 H   0  0  0  0  0  0  0  0  0  0  0  0
   -0.0424   -2.7618    2.0990 H   0  0  0  0  0  0  0  0  0  0  0  0
    1.5672   -2.1759    1.6207 H   0  0  0  0  0  0  0  0  0  0  0  0
   -1.5393   -1.7764   -0.3862 H   0  0  0  0  0  0  0  0  0  0  0  0
   -1.1546   -3.1022   -1.5428 H   0  0  0  0  0  0  0  0  0  0  0  0
   -2.9741   -3.7747   -0.0780 H   0  0  0  0  0  0  0  0  0  0  0  0
   -2.0429   -3.4883    1.4034 H   0  0  0  0  0  0  0  0  0  0  0  0
    0.2578   -6.1737    0.6764 H   0  0  0  0  0  0  0  0  0  0  0  0
   -0.1491   -4.9235    1.8582 H   0  0  0  0  0  0  0  0  0  0  0  0
    1.8495   -4.2696    0.4008 H   0  0  0  0  0  0  0  0  0  0  0  0
    0.8519   -4.6159   -1.0497 H   0  0  0  0  0  0  0  0  0  0  0  0
  1 19  1  0  0  0  0
  1 18  1  0  0  0  0
  1  2  1  0  0  0  0
  2 22  1  0  0  0  0
  3 23  1  0  0  0  0
  3  2  1  0  0  0  0
  3  4  1  0  0  0  0
  4 26  1  0  0  0  0
  5 27  1  0  0  0  0
  5  4  1  0  0  0  0
  5  6  1  0  0  0  0
  6 29  1  0  0  0  0
  6 30  1  0  0  0  0
  7 32  1  0  0  0  0
  7  6  1  0  0  0  0
  8  7  1  0  0  0  0
  8 34  1  0  0  0  0
  9 10  1  0  0  0  0
  9  8  1  0  0  0  0
 10 11  1  0  0  0  0
 10 38  1  0  0  0  0
 11 17  1  0  0  0  0
 11 12  1  0  0  0  0
 12 40  1  0  0  0  0
 12 41  1  0  0  0  0
 13 14  1  0  0  0  0
 13 11  1  0  0  0  0
 14 15  1  0  0  0  0
 14 45  1  0  0  0  0
 15 16  1  0  0  0  0
 16 46  1  0  0  0  0
 16 47  1  0  0  0  0
 17 16  1  0  0  0  0
 17 48  1  0  0  0  0
 20  1  1  0  0  0  0
 21  2  1  0  0  0  0
 24  3  1  0  0  0  0
 25  4  1  0  0  0  0
 28  5  1  0  0  0  0
 31  7  1  0  0  0  0
 33  8  1  0  0  0  0
 35  9  1  0  0  0  0
 36  9  1  0  0  0  0
 37 10  1  0  0  0  0
 39 12  1  0  0  0  0
 42 13  1  0  0  0  0
 43 13  1  0  0  0  0
 44 14  1  0  0  0  0
 49 17  1  0  0  0  0
M  END
