
 OpenBabel09092615093D

 27 26  0  0  0  0  0  0  0  0999 V2000
   -1.5475   -0.4102   -0.8725 C   0  0  0  0  0  0  0  0  0  0  0  0
   -0.4697   -0.9686   -0.0157 N   0  0  0  0  0  0  0  0  0  0  0  0
    0.7054   -1.2741   -0.8931 C   0  0  0  0  0  0  0  0  0  0  0  0
    1.9367   -1.8548   -0.1754 C   0  0  0  0  0  0  0  0  0  0  0  0
   -1.0002   -2.2244    0.5776 C   0  0  0  0  0  0  0  0  0  0  0  0
   -0.1447   -0.0335    1.1129 C   0  0  0  0  0  0  0  0  0  0  0  0
    0.5031    1.3187    0.7384 C   0  0  0  0  0  0  0  0  0  0  0  0
   -0.3954    2.1242    0.0081 O   0  0  0  0  0  0  0  0  0  0  0  0
    0.7466    1.8283    1.6989 H   0  0  0  0  0  0  0  0  0  0  0  0
    0.5562   -0.5335    1.8176 H   0  0  0  0  0  0  0  0  0  0  0  0
   -1.8913   -1.1580   -1.6230 H   0  0  0  0  0  0  0  0  0  0  0  0
   -2.4317   -0.1081   -0.2676 H   0  0  0  0  0  0  0  0  0  0  0  0
   -1.2033    0.4645   -1.4603 H   0  0  0  0  0  0  0  0  0  0  0  0
   -1.2356   -2.9779   -0.2075 H   0  0  0  0  0  0  0  0  0  0  0  0
   -0.2818   -2.6845    1.2884 H   0  0  0  0  0  0  0  0  0  0  0  0
   -1.9345   -2.0330    1.1529 H   0  0  0  0  0  0  0  0  0  0  0  0
   -1.0627    0.1834    1.7065 H   0  0  0  0  0  0  0  0  0  0  0  0
    1.4509    1.1437    0.1844 H   0  0  0  0  0  0  0  0  0  0  0  0
    0.2450    3.3227   -0.3650 C   0  0  0  0  0  0  0  0  0  0  0  0
    0.4083   -2.0034   -1.6816 H   0  0  0  0  0  0  0  0  0  0  0  0
    1.0328   -0.3581   -1.4318 H   0  0  0  0  0  0  0  0  0  0  0  0
    2.7347   -2.0396   -0.9251 H   0  0  0  0  0  0  0  0  0  0  0  0
    1.7103   -2.8243    0.3104 H   0  0  0  0  0  0  0  0  0  0  0  0
    2.3452   -1.1486    0.5745 H   0  0  0  0  0  0  0  0  0  0  0  0
    0.5725    3.9038    0.5258 H   0  0  0  0  0  0  0  0  0  0  0  0
   -0.4863    3.9528   -0.9114 H   0  0  0  0  0  0  0  0  0  0  0  0
    1.0914    3.1279   -1.0603 H   0  0  0  0  0  0  0  0  0  0  0  0
  1 12  1  0  0  0  0
  1  2  1  0  0  0  0
  2  5  1  0  0  0  0
  2  6  1  0  0  0  0
  3  4  1  0  0  0  0
  3  2  1  0  0  0  0
  4 23  1  0  0  0  0
  4 24  1  0  0  0  0
  5 16  1  0  0  0  0
  5 15  1  0  0  0  0
  6 17  1  0  0  0  0
  6 10  1  0  0  0  0
  7  6  1  0  0  0  0
  7  9  1  0  0  0  0
  8  7  1  0  0  0  0
 11  1  1  0  0  0  0
 13  1  1  0  0  0  0
 14  5  1  0  0  0  0
 18  7  1  0  0  0  0
 19  8  1  0  0  0  0
 19 25  1  0  0  0  0
 20  3  1  0  0  0  0
 21  3  1  0  0  0  0
 22  4  1  0  0  0  0
 26 19  1  0  0  0  0
 27 19  1  0  0  0  0
M  END
