
 OpenBabel09092614383D

 61 61  0  0  0  0  0  0  0  0999 V2000
   -1.9486    5.8096   -1.3204 C   0  0  0  0  0  0  0  0  0  0  0  0
   -1.1775    7.1307   -1.2602 C   0  0  0  0  0  0  0  0  0  0  0  0
    0.3265    7.0418   -1.5913 C   0  0  0  0  0  0  0  0  0  0  0  0
    1.2824    6.5227   -0.4957 C   0  0  0  0  0  0  0  0  0  0  0  0
    1.1324    5.0434   -0.1210 C   0  0  0  0  0  0  0  0  0  0  0  0
    2.2428    4.6067    0.8421 C   0  0  0  0  0  0  0  0  0  0  0  0
    2.3142    3.0967    1.1581 C   0  0  0  0  0  0  0  0  0  0  0  0
    1.1487    2.4654    1.9472 C   0  0  0  0  0  0  0  0  0  0  0  0
   -0.1015    2.1311    1.1143 C   0  0  0  0  0  0  0  0  0  0  0  0
   -1.1415    1.3929    1.9707 C   0  0  0  0  0  0  0  0  0  0  0  0
   -2.4308    1.0691    1.2000 C   0  0  0  0  0  0  0  0  0  0  0  0
   -2.3228    0.2467   -0.1057 C   0  0  0  0  0  0  0  0  0  0  0  0
   -1.8642   -1.2219    0.0057 C   0  0  0  0  0  0  0  0  0  0  0  0
   -0.3445   -1.4218    0.1625 C   0  0  0  0  0  0  0  0  0  0  0  0
    0.0699   -2.9022    0.2316 C   0  0  0  0  0  0  0  0  0  0  0  0
   -0.2207   -3.6879   -1.0553 C   0  0  0  0  0  0  0  0  0  0  0  0
    0.2708   -5.0439   -0.9371 N   0  0  0  0  0  0  0  0  0  0  0  0
    1.2550   -5.6250   -1.7620 C   0  0  0  0  0  0  0  0  0  0  0  0
    1.4505   -6.9208   -1.3636 C   0  0  0  0  0  0  0  0  0  0  0  0
    0.5933   -7.1902   -0.2788 N   0  0  0  0  0  0  0  0  0  0  0  0
    0.4982   -8.4493    0.4189 C   0  0  0  0  0  0  0  0  0  0  0  0
   -0.1814   -6.0129    0.0371 C   0  0  0  0  0  0  0  0  0  0  0  0
   -1.6673    5.0955   -0.5340 H   0  0  0  0  0  0  0  0  0  0  0  0
   -3.0303    6.0190   -1.1811 H   0  0  0  0  0  0  0  0  0  0  0  0
   -1.8116    5.3317   -2.3136 H   0  0  0  0  0  0  0  0  0  0  0  0
   -1.6348    7.7699   -2.0475 H   0  0  0  0  0  0  0  0  0  0  0  0
   -1.3301    7.6384   -0.2837 H   0  0  0  0  0  0  0  0  0  0  0  0
    0.6555    8.0881   -1.7787 H   0  0  0  0  0  0  0  0  0  0  0  0
    0.4733    6.4800   -2.5394 H   0  0  0  0  0  0  0  0  0  0  0  0
    2.3100    6.6638   -0.8984 H   0  0  0  0  0  0  0  0  0  0  0  0
    1.1850    7.1525    0.4158 H   0  0  0  0  0  0  0  0  0  0  0  0
    1.1818    4.4246   -1.0433 H   0  0  0  0  0  0  0  0  0  0  0  0
    0.1789    4.9294    0.4001 H   0  0  0  0  0  0  0  0  0  0  0  0
    3.2184    4.8638    0.3731 H   0  0  0  0  0  0  0  0  0  0  0  0
    2.1590    5.1833    1.7896 H   0  0  0  0  0  0  0  0  0  0  0  0
    3.2131    2.9899    1.8053 H   0  0  0  0  0  0  0  0  0  0  0  0
    2.5076    2.5084    0.2347 H   0  0  0  0  0  0  0  0  0  0  0  0
    1.5264    1.4893    2.3261 H   0  0  0  0  0  0  0  0  0  0  0  0
    0.8991    3.0966    2.8275 H   0  0  0  0  0  0  0  0  0  0  0  0
    0.2059    1.4872    0.2642 H   0  0  0  0  0  0  0  0  0  0  0  0
   -0.5850    3.0315    0.7110 H   0  0  0  0  0  0  0  0  0  0  0  0
   -1.4221    2.0435    2.8282 H   0  0  0  0  0  0  0  0  0  0  0  0
   -0.7156    0.4761    2.4148 H   0  0  0  0  0  0  0  0  0  0  0  0
   -3.1298    0.5516    1.8926 H   0  0  0  0  0  0  0  0  0  0  0  0
   -2.8980    2.0408    0.9250 H   0  0  0  0  0  0  0  0  0  0  0  0
   -1.7215    0.7785   -0.8735 H   0  0  0  0  0  0  0  0  0  0  0  0
   -3.3653    0.2083   -0.4932 H   0  0  0  0  0  0  0  0  0  0  0  0
   -2.1497   -1.6946   -0.9566 H   0  0  0  0  0  0  0  0  0  0  0  0
   -2.4254   -1.7309    0.8189 H   0  0  0  0  0  0  0  0  0  0  0  0
    0.0128   -0.9645    1.0954 H   0  0  0  0  0  0  0  0  0  0  0  0
    0.1857   -0.9319   -0.6832 H   0  0  0  0  0  0  0  0  0  0  0  0
    1.1673   -2.9366    0.4105 H   0  0  0  0  0  0  0  0  0  0  0  0
   -0.4361   -3.3866    1.0951 H   0  0  0  0  0  0  0  0  0  0  0  0
   -1.3102   -3.7279   -1.2582 H   0  0  0  0  0  0  0  0  0  0  0  0
    0.2802   -3.1808   -1.9092 H   0  0  0  0  0  0  0  0  0  0  0  0
    1.7670   -5.1263   -2.5746 H   0  0  0  0  0  0  0  0  0  0  0  0
    2.1435   -7.6244   -1.8061 H   0  0  0  0  0  0  0  0  0  0  0  0
    1.1997   -9.1922   -0.0170 H   0  0  0  0  0  0  0  0  0  0  0  0
    0.7514   -8.3014    1.4895 H   0  0  0  0  0  0  0  0  0  0  0  0
   -0.5367   -8.8427    0.3382 H   0  0  0  0  0  0  0  0  0  0  0  0
   -1.2651   -6.2174   -0.0980 H   0  0  0  0  0  0  0  0  0  0  0  0
  1 23  1  0  0  0  0
  1 24  1  0  0  0  0
  2 27  1  0  0  0  0
  2  1  1  0  0  0  0
  3  4  1  0  0  0  0
  3  2  1  0  0  0  0
  4 31  1  0  0  0  0
  5  4  1  0  0  0  0
  5  6  1  0  0  0  0
  5 33  1  0  0  0  0
  6 35  1  0  0  0  0
  7 36  1  0  0  0  0
  7  6  1  0  0  0  0
  7  8  1  0  0  0  0
  8 38  1  0  0  0  0
  8 39  1  0  0  0  0
  9 10  1  0  0  0  0
  9  8  1  0  0  0  0
 10 43  1  0  0  0  0
 10 42  1  0  0  0  0
 11 44  1  0  0  0  0
 11 10  1  0  0  0  0
 12 13  1  0  0  0  0
 12 11  1  0  0  0  0
 13 49  1  0  0  0  0
 13 14  1  0  0  0  0
 14 15  1  0  0  0  0
 14 50  1  0  0  0  0
 15 52  1  0  0  0  0
 16 55  1  0  0  0  0
 16 17  1  0  0  0  0
 16 15  1  0  0  0  0
 17 18  1  0  0  0  0
 18 19  2  0  0  0  0
 18 56  1  0  0  0  0
 19 57  1  0  0  0  0
 20 19  1  0  0  0  0
 21 20  1  0  0  0  0
 21 59  1  0  0  0  0
 22 17  1  0  0  0  0
 22 20  1  0  0  0  0
 25  1  1  0  0  0  0
 26  2  1  0  0  0  0
 28  3  1  0  0  0  0
 29  3  1  0  0  0  0
 30  4  1  0  0  0  0
 32  5  1  0  0  0  0
 34  6  1  0  0  0  0
 37  7  1  0  0  0  0
 40  9  1  0  0  0  0
 41  9  1  0  0  0  0
 45 11  1  0  0  0  0
 46 12  1  0  0  0  0
 47 12  1  0  0  0  0
 48 13  1  0  0  0  0
 51 14  1  0  0  0  0
 53 15  1  0  0  0  0
 54 16  1  0  0  0  0
 58 21  1  0  0  0  0
 60 21  1  0  0  0  0
 61 22  1  0  0  0  0
M  END
