
 OpenBabel09152609383D

 25 25  0  0  0  0  0  0  0  0999 V2000
    2.1449   -0.9434   -0.0000 C   0  0  0  0  0  0  0  0  0  0  0  0
    0.7248   -0.4976   -0.0000 N   0  0  0  0  0  0  0  0  0  0  0  0
    0.7607    1.0038    0.0000 C   0  0  0  0  0  0  0  0  0  0  0  0
   -0.5670    1.7721    0.0000 C   0  0  0  0  0  0  0  0  0  0  0  0
   -0.2901    3.1456    0.0000 O   0  0  0  0  0  0  0  0  0  0  0  0
    0.0167   -1.1033    1.1529 C   0  0  0  0  0  0  0  0  0  0  0  0
   -1.4543   -1.2601    0.7634 C   0  0  0  0  0  0  0  0  0  0  0  0
   -1.4543   -1.2601   -0.7634 C   0  0  0  0  0  0  0  0  0  0  0  0
    0.0167   -1.1033   -1.1529 C   0  0  0  0  0  0  0  0  0  0  0  0
    2.6796   -0.5727   -0.9033 H   0  0  0  0  0  0  0  0  0  0  0  0
    2.2390   -2.0528   -0.0000 H   0  0  0  0  0  0  0  0  0  0  0  0
    2.6796   -0.5727    0.9033 H   0  0  0  0  0  0  0  0  0  0  0  0
    1.3236    1.3530   -0.8966 H   0  0  0  0  0  0  0  0  0  0  0  0
    1.3236    1.3530    0.8966 H   0  0  0  0  0  0  0  0  0  0  0  0
   -1.1368    1.5379    0.9193 H   0  0  0  0  0  0  0  0  0  0  0  0
   -1.1368    1.5379   -0.9193 H   0  0  0  0  0  0  0  0  0  0  0  0
   -1.1692    3.6068   -0.0000 H   0  0  0  0  0  0  0  0  0  0  0  0
    0.1862   -0.5950    2.1273 H   0  0  0  0  0  0  0  0  0  0  0  0
    0.3743   -2.1538    1.2780 H   0  0  0  0  0  0  0  0  0  0  0  0
   -2.0411   -0.3855    1.1033 H   0  0  0  0  0  0  0  0  0  0  0  0
   -1.9240   -2.1536    1.2287 H   0  0  0  0  0  0  0  0  0  0  0  0
   -2.0411   -0.3855   -1.1033 H   0  0  0  0  0  0  0  0  0  0  0  0
   -1.9240   -2.1536   -1.2287 H   0  0  0  0  0  0  0  0  0  0  0  0
    0.3743   -2.1538   -1.2780 H   0  0  0  0  0  0  0  0  0  0  0  0
    0.1862   -0.5950   -2.1273 H   0  0  0  0  0  0  0  0  0  0  0  0
  1  2  1  0  0  0  0
  1 11  1  0  0  0  0
  1 12  1  0  0  0  0
  2  3  1  0  0  0  0
  2  6  1  0  0  0  0
  3  4  1  0  0  0  0
  3 14  1  0  0  0  0
  4  5  1  0  0  0  0
  4 15  1  0  0  0  0
  5 17  1  0  0  0  0
  6 19  1  0  0  0  0
  6 18  1  0  0  0  0
  7 20  1  0  0  0  0
  7 21  1  0  0  0  0
  7  6  1  0  0  0  0
  8  7  1  0  0  0  0
  9  8  1  0  0  0  0
  9  2  1  0  0  0  0
 10  1  1  0  0  0  0
 13  3  1  0  0  0  0
 16  4  1  0  0  0  0
 22  8  1  0  0  0  0
 23  8  1  0  0  0  0
 24  9  1  0  0  0  0
 25  9  1  0  0  0  0
M  END
