
 OpenBabel09092615113D

 21 20  0  0  0  0  0  0  0  0999 V2000
    0.8176    1.1160   -1.1802 C   0  0  0  0  0  0  0  0  0  0  0  0
   -0.0474    0.8665   -0.0024 N   0  0  0  0  0  0  0  0  0  0  0  0
    1.7318    0.4863   -1.1602 H   0  0  0  0  0  0  0  0  0  0  0  0
    1.1647    2.1737   -1.2041 H   0  0  0  0  0  0  0  0  0  0  0  0
    0.2709    0.9138   -2.1282 H   0  0  0  0  0  0  0  0  0  0  0  0
    0.7247    1.1124    1.2390 C   0  0  0  0  0  0  0  0  0  0  0  0
   -0.6191   -0.5158   -0.0265 C   0  0  0  0  0  0  0  0  0  0  0  0
    1.0688    2.1699    1.2927 H   0  0  0  0  0  0  0  0  0  0  0  0
    1.6378    0.4826    1.2872 H   0  0  0  0  0  0  0  0  0  0  0  0
    0.1069    0.9074    2.1417 H   0  0  0  0  0  0  0  0  0  0  0  0
   -1.3021   -0.6533    0.8437 H   0  0  0  0  0  0  0  0  0  0  0  0
    0.4072   -1.6656    0.0112 C   0  0  0  0  0  0  0  0  0  0  0  0
   -1.2334   -0.6506   -0.9468 H   0  0  0  0  0  0  0  0  0  0  0  0
   -1.1769    1.8273   -0.0443 C   0  0  0  0  0  0  0  0  0  0  0  0
   -0.8150    2.8803   -0.0288 H   0  0  0  0  0  0  0  0  0  0  0  0
   -1.8529    1.6919    0.8300 H   0  0  0  0  0  0  0  0  0  0  0  0
   -1.7839    1.6946   -0.9683 H   0  0  0  0  0  0  0  0  0  0  0  0
    1.0047   -1.6158    0.9457 H   0  0  0  0  0  0  0  0  0  0  0  0
    1.0745   -1.6131   -0.8747 H   0  0  0  0  0  0  0  0  0  0  0  0
   -0.2795   -2.8862   -0.0170 O   0  0  0  0  0  0  0  0  0  0  0  0
    0.4141   -3.5958    0.0084 H   0  0  0  0  0  0  0  0  0  0  0  0
  1  4  1  0  0  0  0
  1  3  1  0  0  0  0
  1  2  1  0  0  0  0
  2  6  1  0  0  0  0
  5  1  1  0  0  0  0
  6  8  1  0  0  0  0
  6  9  1  0  0  0  0
  6 10  1  0  0  0  0
  7  2  1  0  0  0  0
  7 12  1  0  0  0  0
  7 11  1  0  0  0  0
 12 18  1  0  0  0  0
 13  7  1  0  0  0  0
 14 15  1  0  0  0  0
 14  2  1  0  0  0  0
 14 16  1  0  0  0  0
 17 14  1  0  0  0  0
 19 12  1  0  0  0  0
 20 21  1  0  0  0  0
 20 12  1  0  0  0  0
M  END
