
 OpenBabel09092614513D

 34 34  0  0  1  0  0  0  0  0999 V2000
   -1.2981   -3.4643   -0.3695 C   0  0  0  0  0  0  0  0  0  0  0  0
    0.1127   -3.4399   -0.3853 N   0  0  0  0  0  0  0  0  0  0  0  0
    0.5006   -2.1962    0.1531 C   0  0  1  0  0  0  0  0  0  0  0  0
   -0.6556   -1.4479    0.4791 N   0  0  0  0  0  0  0  0  0  0  0  0
   -1.7598   -2.2698    0.1562 C   0  0  0  0  0  0  0  0  0  0  0  0
    0.9829   -4.4961   -0.8454 C   0  0  0  0  0  0  0  0  0  0  0  0
    1.9233   -1.7854    0.3857 C   0  0  0  0  0  0  0  0  0  0  0  0
   -0.7370   -0.1134    1.0388 C   0  0  0  0  0  0  0  0  0  0  0  0
   -0.2400    0.9350    0.0335 C   0  0  0  0  0  0  0  0  0  0  0  0
   -0.3424    2.3479    0.6199 C   0  0  0  0  0  0  0  0  0  0  0  0
   -1.9131   -4.2868   -0.7103 H   0  0  0  0  0  0  0  0  0  0  0  0
   -2.7989   -2.0001    0.2919 H   0  0  0  0  0  0  0  0  0  0  0  0
    1.9912   -0.7964    0.8778 H   0  0  0  0  0  0  0  0  0  0  0  0
    2.4128   -2.5274    1.0497 H   0  0  0  0  0  0  0  0  0  0  0  0
    2.4629   -1.7513   -0.5831 H   0  0  0  0  0  0  0  0  0  0  0  0
   -0.1558   -0.0739    1.9851 H   0  0  0  0  0  0  0  0  0  0  0  0
   -1.7986    0.1205    1.2759 H   0  0  0  0  0  0  0  0  0  0  0  0
    0.8137    0.7380   -0.2480 H   0  0  0  0  0  0  0  0  0  0  0  0
   -0.8621    0.8711   -0.8864 H   0  0  0  0  0  0  0  0  0  0  0  0
    0.3865   -5.3595   -1.2094 H   0  0  0  0  0  0  0  0  0  0  0  0
    1.6165   -4.1218   -1.6764 H   0  0  0  0  0  0  0  0  0  0  0  0
    1.6324   -4.8354   -0.0116 H   0  0  0  0  0  0  0  0  0  0  0  0
    0.1389    3.3987   -0.3878 C   0  0  0  0  0  0  0  0  0  0  0  0
   -1.4007    2.5581    0.8908 H   0  0  0  0  0  0  0  0  0  0  0  0
    0.2812    2.4082    1.5392 H   0  0  0  0  0  0  0  0  0  0  0  0
    0.0369    4.8109    0.1998 C   0  0  0  0  0  0  0  0  0  0  0  0
    1.1975    3.1898   -0.6588 H   0  0  0  0  0  0  0  0  0  0  0  0
   -0.4846    3.3380   -1.3072 H   0  0  0  0  0  0  0  0  0  0  0  0
    0.5149    5.8596   -0.8002 C   0  0  0  0  0  0  0  0  0  0  0  0
   -1.0197    5.0281    0.4697 H   0  0  0  0  0  0  0  0  0  0  0  0
    0.6610    4.8798    1.1176 H   0  0  0  0  0  0  0  0  0  0  0  0
    1.5771    5.6791   -1.0710 H   0  0  0  0  0  0  0  0  0  0  0  0
   -0.1070    5.8276   -1.7202 H   0  0  0  0  0  0  0  0  0  0  0  0
    0.4300    6.8705   -0.3487 H   0  0  0  0  0  0  0  0  0  0  0  0
  1  2  1  0  0  0  0
  1  5  2  0  0  0  0
  2  3  1  0  0  0  0
  3  4  1  0  0  0  0
  3  7  1  1  0  0  0
  4  8  1  0  0  0  0
  5 12  1  0  0  0  0
  5  4  1  0  0  0  0
  6  2  1  0  0  0  0
  6 22  1  0  0  0  0
  7 14  1  0  0  0  0
  7 13  1  0  0  0  0
  8 17  1  0  0  0  0
  8 16  1  0  0  0  0
  9 10  1  0  0  0  0
  9  8  1  0  0  0  0
 10 24  1  0  0  0  0
 10 25  1  0  0  0  0
 11  1  1  0  0  0  0
 15  7  1  0  0  0  0
 18  9  1  0  0  0  0
 19  9  1  0  0  0  0
 20  6  1  0  0  0  0
 21  6  1  0  0  0  0
 23 26  1  0  0  0  0
 23 10  1  0  0  0  0
 26 30  1  0  0  0  0
 26 31  1  0  0  0  0
 27 23  1  0  0  0  0
 28 23  1  0  0  0  0
 29 34  1  0  0  0  0
 29 26  1  0  0  0  0
 32 29  1  0  0  0  0
 33 29  1  0  0  0  0
M  END
