
 OpenBabel09152609353D

 31 31  0  0  0  0  0  0  0  0999 V2000
    0.5541   -4.1001   -0.0901 C   0  0  0  0  0  0  0  0  0  0  0  0
    0.3788   -2.9166    0.6555 O   0  0  0  0  0  0  0  0  0  0  0  0
   -0.1013   -1.8928   -0.1906 C   0  0  0  0  0  0  0  0  0  0  0  0
   -0.2663   -0.6074    0.6483 C   0  0  0  0  0  0  0  0  0  0  0  0
   -0.7798    0.6050   -0.0800 N   0  0  0  0  0  0  0  0  0  0  0  0
   -2.1610    0.3395   -0.5610 C   0  0  0  0  0  0  0  0  0  0  0  0
   -0.8355    1.7801    0.8792 C   0  0  0  0  0  0  0  0  0  0  0  0
    0.2434    2.8758    0.6408 C   0  0  0  0  0  0  0  0  0  0  0  0
    1.5842    2.1962    0.4038 C   0  0  0  0  0  0  0  0  0  0  0  0
    1.5189    1.3293   -0.8717 C   0  0  0  0  0  0  0  0  0  0  0  0
    0.0669    0.9462   -1.2582 C   0  0  0  0  0  0  0  0  0  0  0  0
    1.3218   -3.9686   -0.8848 H   0  0  0  0  0  0  0  0  0  0  0  0
    0.9268   -4.8905    0.5932 H   0  0  0  0  0  0  0  0  0  0  0  0
   -0.4107   -4.4619   -0.5099 H   0  0  0  0  0  0  0  0  0  0  0  0
    0.6342   -1.7067   -1.0026 H   0  0  0  0  0  0  0  0  0  0  0  0
   -1.0848   -2.1914   -0.6111 H   0  0  0  0  0  0  0  0  0  0  0  0
    0.7220   -0.3962    1.1045 H   0  0  0  0  0  0  0  0  0  0  0  0
   -0.9520   -0.8508    1.4926 H   0  0  0  0  0  0  0  0  0  0  0  0
   -2.8289    0.0460    0.2796 H   0  0  0  0  0  0  0  0  0  0  0  0
   -2.5981    1.2444   -1.0408 H   0  0  0  0  0  0  0  0  0  0  0  0
   -2.1903   -0.4571   -1.3331 H   0  0  0  0  0  0  0  0  0  0  0  0
   -1.8168    2.3076    0.8661 H   0  0  0  0  0  0  0  0  0  0  0  0
   -0.7250    1.4250    1.9297 H   0  0  0  0  0  0  0  0  0  0  0  0
    0.2790    3.5561    1.5188 H   0  0  0  0  0  0  0  0  0  0  0  0
   -0.0034    3.4943   -0.2495 H   0  0  0  0  0  0  0  0  0  0  0  0
    1.7754    1.5606    1.2944 H   0  0  0  0  0  0  0  0  0  0  0  0
    2.4322    2.9103    0.3327 H   0  0  0  0  0  0  0  0  0  0  0  0
    2.1680    0.4410   -0.7163 H   0  0  0  0  0  0  0  0  0  0  0  0
    1.9271    1.8885   -1.7418 H   0  0  0  0  0  0  0  0  0  0  0  0
   -0.3849    1.8341   -1.7592 H   0  0  0  0  0  0  0  0  0  0  0  0
    0.0716    0.1603   -2.0433 H   0  0  0  0  0  0  0  0  0  0  0  0
  1 13  1  0  0  0  0
  1  2  1  0  0  0  0
  3  4  1  0  0  0  0
  3  2  1  0  0  0  0
  4 17  1  0  0  0  0
  4 18  1  0  0  0  0
  5  4  1  0  0  0  0
  5  7  1  0  0  0  0
  6  5  1  0  0  0  0
  6 19  1  0  0  0  0
  7 23  1  0  0  0  0
  8  7  1  0  0  0  0
  8 24  1  0  0  0  0
  9  8  1  0  0  0  0
  9 26  1  0  0  0  0
 10 28  1  0  0  0  0
 10  9  1  0  0  0  0
 11 10  1  0  0  0  0
 11  5  1  0  0  0  0
 12  1  1  0  0  0  0
 14  1  1  0  0  0  0
 15  3  1  0  0  0  0
 16  3  1  0  0  0  0
 20  6  1  0  0  0  0
 21  6  1  0  0  0  0
 22  7  1  0  0  0  0
 25  8  1  0  0  0  0
 27  9  1  0  0  0  0
 29 10  1  0  0  0  0
 30 11  1  0  0  0  0
 31 11  1  0  0  0  0
M  END
