
 OpenBabel09092614453D

 23 23  0  0  0  0  0  0  0  0999 V2000
   -0.4319   -2.2119   -0.1535 N   0  0  0  0  0  0  0  0  0  0  0  0
    0.3448   -1.9747    0.9964 C   0  0  0  0  0  0  0  0  0  0  0  0
    1.0054   -0.7854    0.8382 C   0  0  0  0  0  0  0  0  0  0  0  0
    0.6591   -0.2413   -0.4161 N   0  0  0  0  0  0  0  0  0  0  0  0
   -0.2553   -1.1311   -1.0961 C   0  0  0  0  0  0  0  0  0  0  0  0
    1.1537    1.0083   -0.9549 C   0  0  0  0  0  0  0  0  0  0  0  0
    0.7390    2.1888   -0.0765 C   0  0  0  0  0  0  0  0  0  0  0  0
    1.1786    2.0471    0.9373 H   0  0  0  0  0  0  0  0  0  0  0  0
   -1.2729   -3.3659   -0.3559 C   0  0  0  0  0  0  0  0  0  0  0  0
    1.1507    3.1139   -0.5407 H   0  0  0  0  0  0  0  0  0  0  0  0
    0.4050   -2.6274    1.8574 H   0  0  0  0  0  0  0  0  0  0  0  0
    1.6804   -0.3345    1.5535 H   0  0  0  0  0  0  0  0  0  0  0  0
   -1.2241   -0.6186   -1.2794 H   0  0  0  0  0  0  0  0  0  0  0  0
    0.7470    1.1640   -1.9784 H   0  0  0  0  0  0  0  0  0  0  0  0
    2.2619    0.9644   -1.0240 H   0  0  0  0  0  0  0  0  0  0  0  0
   -0.6701    2.2499   -0.0145 O   0  0  0  0  0  0  0  0  0  0  0  0
   -0.6568   -4.2885   -0.3156 H   0  0  0  0  0  0  0  0  0  0  0  0
   -1.7741   -3.3108   -1.3456 H   0  0  0  0  0  0  0  0  0  0  0  0
   -2.0478   -3.4068    0.4381 H   0  0  0  0  0  0  0  0  0  0  0  0
   -1.0534    3.3237    0.8133 C   0  0  0  0  0  0  0  0  0  0  0  0
   -2.1617    3.3642    0.8406 H   0  0  0  0  0  0  0  0  0  0  0  0
   -0.7073    3.1712    1.8598 H   0  0  0  0  0  0  0  0  0  0  0  0
   -0.7025    4.2972    0.4041 H   0  0  0  0  0  0  0  0  0  0  0  0
  1  2  1  0  0  0  0
  2 11  1  0  0  0  0
  3  2  2  0  0  0  0
  3 12  1  0  0  0  0
  4  3  1  0  0  0  0
  5  4  1  0  0  0  0
  5  1  1  0  0  0  0
  6 15  1  0  0  0  0
  6  4  1  0  0  0  0
  6  7  1  0  0  0  0
  7  8  1  0  0  0  0
  9  1  1  0  0  0  0
  9 19  1  0  0  0  0
 10  7  1  0  0  0  0
 13  5  1  0  0  0  0
 14  6  1  0  0  0  0
 16  7  1  0  0  0  0
 16 20  1  0  0  0  0
 17  9  1  0  0  0  0
 18  9  1  0  0  0  0
 20 22  1  0  0  0  0
 21 20  1  0  0  0  0
 23 20  1  0  0  0  0
M  END
