
 OpenBabel09092615013D

 29 29  0  0  0  0  0  0  0  0999 V2000
   -0.4035    2.8557   -0.0594 C   0  0  0  0  0  0  0  0  0  0  0  0
   -1.1398    1.5759   -0.5021 C   0  0  0  0  0  0  0  0  0  0  0  0
   -0.5465    0.3362    0.0856 N   0  0  0  0  0  0  0  0  0  0  0  0
    0.9260    0.3657   -0.1535 C   0  0  0  0  0  0  0  0  0  0  0  0
    1.5621    1.7035    0.2754 C   0  0  0  0  0  0  0  0  0  0  0  0
    0.9633    2.7847   -0.4088 O   0  0  0  0  0  0  0  0  0  0  0  0
   -0.8485    0.2679    1.5417 C   0  0  0  0  0  0  0  0  0  0  0  0
   -1.1890   -0.8266   -0.6167 C   0  0  0  0  0  0  0  0  0  0  0  0
   -0.7701   -2.2459   -0.1680 C   0  0  0  0  0  0  0  0  0  0  0  0
    0.5860   -2.4902   -0.4713 O   0  0  0  0  0  0  0  0  0  0  0  0
    0.9491   -3.7689   -0.0034 C   0  0  0  0  0  0  0  0  0  0  0  0
   -0.5243    3.0739    1.0234 H   0  0  0  0  0  0  0  0  0  0  0  0
   -0.8562    3.7191   -0.5913 H   0  0  0  0  0  0  0  0  0  0  0  0
   -2.2215    1.6628   -0.2508 H   0  0  0  0  0  0  0  0  0  0  0  0
   -1.0592    1.5448   -1.6139 H   0  0  0  0  0  0  0  0  0  0  0  0
    1.4451   -0.4463    0.3978 H   0  0  0  0  0  0  0  0  0  0  0  0
    1.1339    0.2397   -1.2410 H   0  0  0  0  0  0  0  0  0  0  0  0
    1.5197    1.8605    1.3754 H   0  0  0  0  0  0  0  0  0  0  0  0
    2.6410    1.6775    0.0137 H   0  0  0  0  0  0  0  0  0  0  0  0
   -0.3517   -0.6011    2.0208 H   0  0  0  0  0  0  0  0  0  0  0  0
   -0.4916    1.1549    2.0979 H   0  0  0  0  0  0  0  0  0  0  0  0
   -1.9443    0.1914    1.7187 H   0  0  0  0  0  0  0  0  0  0  0  0
   -2.2939   -0.7687   -0.4782 H   0  0  0  0  0  0  0  0  0  0  0  0
   -1.0052   -0.7636   -1.7142 H   0  0  0  0  0  0  0  0  0  0  0  0
   -1.4039   -2.9578   -0.7451 H   0  0  0  0  0  0  0  0  0  0  0  0
   -0.9890   -2.3866    0.9124 H   0  0  0  0  0  0  0  0  0  0  0  0
    0.8851   -3.8252    1.1059 H   0  0  0  0  0  0  0  0  0  0  0  0
    2.0081   -3.9522   -0.2777 H   0  0  0  0  0  0  0  0  0  0  0  0
    0.3449   -4.5670   -0.4894 H   0  0  0  0  0  0  0  0  0  0  0  0
  1 12  1  0  0  0  0
  2 14  1  0  0  0  0
  2  1  1  0  0  0  0
  2  3  1  0  0  0  0
  3  7  1  0  0  0  0
  4  3  1  0  0  0  0
  4 16  1  0  0  0  0
  4  5  1  0  0  0  0
  5 18  1  0  0  0  0
  6  1  1  0  0  0  0
  6  5  1  0  0  0  0
  7 22  1  0  0  0  0
  7 20  1  0  0  0  0
  7 21  1  0  0  0  0
  8 23  1  0  0  0  0
  8  9  1  0  0  0  0
  8  3  1  0  0  0  0
  9 26  1  0  0  0  0
 10  9  1  0  0  0  0
 10 11  1  0  0  0  0
 11 27  1  0  0  0  0
 13  1  1  0  0  0  0
 15  2  1  0  0  0  0
 17  4  1  0  0  0  0
 19  5  1  0  0  0  0
 24  8  1  0  0  0  0
 25  9  1  0  0  0  0
 28 11  1  0  0  0  0
 29 11  1  0  0  0  0
M  END
