
 OpenBabel09152609373D

 28 28  0  0  0  0  0  0  0  0999 V2000
    0.3599   -4.0316   -0.2639 C   0  0  0  0  0  0  0  0  0  0  0  0
    0.3378   -2.8911    0.5643 O   0  0  0  0  0  0  0  0  0  0  0  0
    1.0930   -3.9163   -1.0929 H   0  0  0  0  0  0  0  0  0  0  0  0
   -0.6560   -4.2745   -0.6474 H   0  0  0  0  0  0  0  0  0  0  0  0
    0.6921   -4.8977    0.3446 H   0  0  0  0  0  0  0  0  0  0  0  0
   -0.0886   -1.7733   -0.1857 C   0  0  0  0  0  0  0  0  0  0  0  0
   -0.0810   -0.5363    0.7349 C   0  0  0  0  0  0  0  0  0  0  0  0
   -1.1204   -1.9480   -0.5588 H   0  0  0  0  0  0  0  0  0  0  0  0
    0.6060   -1.5965   -1.0367 H   0  0  0  0  0  0  0  0  0  0  0  0
   -0.4598    0.7495    0.0713 N   0  0  0  0  0  0  0  0  0  0  0  0
    0.9429   -0.4437    1.1659 H   0  0  0  0  0  0  0  0  0  0  0  0
   -0.7718   -0.7398    1.5850 H   0  0  0  0  0  0  0  0  0  0  0  0
   -1.8512    0.6985   -0.4450 C   0  0  0  0  0  0  0  0  0  0  0  0
   -1.9634   -0.0525   -1.2537 H   0  0  0  0  0  0  0  0  0  0  0  0
   -2.1494    1.6725   -0.8939 H   0  0  0  0  0  0  0  0  0  0  0  0
   -2.5675    0.4576    0.3715 H   0  0  0  0  0  0  0  0  0  0  0  0
    0.4932    1.1106   -1.0196 C   0  0  0  0  0  0  0  0  0  0  0  0
    0.8120    2.5852   -0.8326 C   0  0  0  0  0  0  0  0  0  0  0  0
    0.1391    0.8623   -2.0451 H   0  0  0  0  0  0  0  0  0  0  0  0
    1.4641    0.5785   -0.8777 H   0  0  0  0  0  0  0  0  0  0  0  0
    0.9237    2.6341    0.6726 C   0  0  0  0  0  0  0  0  0  0  0  0
   -0.0580    3.2000   -1.1586 H   0  0  0  0  0  0  0  0  0  0  0  0
    1.7192    2.9242   -1.3767 H   0  0  0  0  0  0  0  0  0  0  0  0
   -0.3354    1.8715    1.0539 C   0  0  0  0  0  0  0  0  0  0  0  0
    0.9827    3.6559    1.1041 H   0  0  0  0  0  0  0  0  0  0  0  0
    1.8202    2.0547    0.9924 H   0  0  0  0  0  0  0  0  0  0  0  0
   -1.1729    2.6005    0.9340 H   0  0  0  0  0  0  0  0  0  0  0  0
   -0.3484    1.5626    2.1234 H   0  0  0  0  0  0  0  0  0  0  0  0
  1  2  1  0  0  0  0
  1  5  1  0  0  0  0
  3  1  1  0  0  0  0
  4  1  1  0  0  0  0
  6  2  1  0  0  0  0
  6  7  1  0  0  0  0
  7 11  1  0  0  0  0
  7 12  1  0  0  0  0
  8  6  1  0  0  0  0
  9  6  1  0  0  0  0
 10  7  1  0  0  0  0
 10 24  1  0  0  0  0
 13 10  1  0  0  0  0
 13 16  1  0  0  0  0
 14 13  1  0  0  0  0
 15 13  1  0  0  0  0
 17 20  1  0  0  0  0
 17 18  1  0  0  0  0
 17 10  1  0  0  0  0
 18 21  1  0  0  0  0
 19 17  1  0  0  0  0
 21 25  1  0  0  0  0
 21 26  1  0  0  0  0
 21 24  1  0  0  0  0
 22 18  1  0  0  0  0
 23 18  1  0  0  0  0
 24 28  1  0  0  0  0
 27 24  1  0  0  0  0
M  END
