
 OpenBabel09152609483D

 30 29  0  0  0  0  0  0  0  0999 V2000
   -4.3064   -0.1538    0.0323 S   0  0  0  0  0  0  0  0  0  0  0  0
   -2.8312    0.7521    0.0239 O   0  0  0  0  0  0  0  0  0  0  0  0
   -5.7173    0.8233    0.0383 O   0  5  0  0  0  0  0  0  0  0  0  0
   -4.3570   -1.0827    1.2558 O   0  0  0  0  0  0  0  0  0  0  0  0
   -4.3691   -1.0853   -1.1887 O   0  0  0  0  0  0  0  0  0  0  0  0
    2.0778    0.4983   -0.0000 C   0  0  0  0  0  0  0  0  0  0  0  0
    3.2922   -0.4379   -0.0028 C   0  0  0  0  0  0  0  0  0  0  0  0
    0.7683   -0.2991    0.0095 C   0  0  0  0  0  0  0  0  0  0  0  0
    4.6018    0.3595   -0.0125 C   0  0  0  0  0  0  0  0  0  0  0  0
   -0.4460    0.6377    0.0123 C   0  0  0  0  0  0  0  0  0  0  0  0
    5.8155   -0.5771   -0.0154 C   0  0  0  0  0  0  0  0  0  0  0  0
   -1.7546   -0.1519    0.0217 C   0  0  0  0  0  0  0  0  0  0  0  0
    7.1210    0.2128   -0.0251 C   0  0  0  0  0  0  0  0  0  0  0  0
    2.1180    1.1485    0.9018 H   0  0  0  0  0  0  0  0  0  0  0  0
    2.1087    1.1420   -0.9069 H   0  0  0  0  0  0  0  0  0  0  0  0
    3.2521   -1.0881   -0.9046 H   0  0  0  0  0  0  0  0  0  0  0  0
    3.2614   -1.0815    0.9041 H   0  0  0  0  0  0  0  0  0  0  0  0
    0.7373   -0.9428    0.9164 H   0  0  0  0  0  0  0  0  0  0  0  0
    0.7282   -0.9493   -0.8923 H   0  0  0  0  0  0  0  0  0  0  0  0
    4.6330    1.0031   -0.9195 H   0  0  0  0  0  0  0  0  0  0  0  0
    4.6424    1.0097    0.8893 H   0  0  0  0  0  0  0  0  0  0  0  0
   -0.4188    1.2821   -0.8940 H   0  0  0  0  0  0  0  0  0  0  0  0
   -0.4097    1.2885    0.9137 H   0  0  0  0  0  0  0  0  0  0  0  0
    5.7928   -1.2211    0.8908 H   0  0  0  0  0  0  0  0  0  0  0  0
    5.7834   -1.2277   -0.9165 H   0  0  0  0  0  0  0  0  0  0  0  0
   -1.7759   -0.7817    0.9392 H   0  0  0  0  0  0  0  0  0  0  0  0
   -1.7849   -0.7881   -0.8912 H   0  0  0  0  0  0  0  0  0  0  0  0
    7.1895    0.8566    0.8777 H   0  0  0  0  0  0  0  0  0  0  0  0
    7.1801    0.8499   -0.9332 H   0  0  0  0  0  0  0  0  0  0  0  0
    7.9811   -0.4895   -0.0269 H   0  0  0  0  0  0  0  0  0  0  0  0
  1  2  1  0  0  0  0
  1  3  1  0  0  0  0
  1  4  2  0  0  0  0
  1  5  2  0  0  0  0
  2 12  1  0  0  0  0
  6  7  1  0  0  0  0
  6  8  1  0  0  0  0
  6 14  1  0  0  0  0
  6 15  1  0  0  0  0
  7  9  1  0  0  0  0
  7 16  1  0  0  0  0
  7 17  1  0  0  0  0
  8 10  1  0  0  0  0
  8 18  1  0  0  0  0
  8 19  1  0  0  0  0
  9 11  1  0  0  0  0
  9 20  1  0  0  0  0
  9 21  1  0  0  0  0
 10 12  1  0  0  0  0
 10 22  1  0  0  0  0
 10 23  1  0  0  0  0
 11 13  1  0  0  0  0
 11 24  1  0  0  0  0
 11 25  1  0  0  0  0
 12 26  1  0  0  0  0
 12 27  1  0  0  0  0
 13 28  1  0  0  0  0
 13 29  1  0  0  0  0
 13 30  1  0  0  0  0
M  CHG  1   3  -1
M  END
