
 OpenBabel09152609543D

 53 52  0  0  1  0  0  0  0  0999 V2000
   -0.0065    0.7992    0.0465 P   0  0  2  0  0  0  0  0  0  0  0  0
   -0.2320   -0.3087    1.3641 O   0  5  0  0  0  0  0  0  0  0  0  0
    0.2212   -0.1246   -1.1795 O   0  0  0  0  0  0  0  0  0  0  0  0
    2.8021    0.9893    0.7773 C   0  0  2  0  0  0  0  0  0  0  0  0
   -2.7921    0.9863   -0.7656 C   0  0  2  0  0  0  0  0  0  0  0  0
    3.2505    0.0056   -0.3504 C   0  0  0  0  0  0  0  0  0  0  0  0
   -3.2664    0.0134    0.3600 C   0  0  0  0  0  0  0  0  0  0  0  0
    1.5478    1.8021    0.3540 C   0  0  0  0  0  0  0  0  0  0  0  0
   -1.5499    1.8018   -0.3150 C   0  0  0  0  0  0  0  0  0  0  0  0
    4.4980   -0.9261   -0.1661 C   0  0  0  0  0  0  0  0  0  0  0  0
   -4.5032   -0.9272    0.1515 C   0  0  0  0  0  0  0  0  0  0  0  0
    3.8842    1.9958    1.1921 C   0  0  0  0  0  0  0  0  0  0  0  0
   -3.8639    1.9882   -1.2162 C   0  0  0  0  0  0  0  0  0  0  0  0
    4.4589   -1.6350    1.2015 C   0  0  0  0  0  0  0  0  0  0  0  0
    4.4462   -2.0037   -1.2761 C   0  0  0  0  0  0  0  0  0  0  0  0
    5.8410   -0.1774   -0.3427 C   0  0  0  0  0  0  0  0  0  0  0  0
   -4.4224   -1.6505   -1.2067 C   0  0  0  0  0  0  0  0  0  0  0  0
   -5.8544   -0.1841    0.2821 C   0  0  0  0  0  0  0  0  0  0  0  0
   -4.4762   -1.9923    1.2743 C   0  0  0  0  0  0  0  0  0  0  0  0
    2.5317    0.4077    1.6856 H   0  0  0  0  0  0  0  0  0  0  0  0
   -2.4978    0.3973   -1.6615 H   0  0  0  0  0  0  0  0  0  0  0  0
    3.3684    0.5644   -1.3054 H   0  0  0  0  0  0  0  0  0  0  0  0
    2.3957   -0.6844   -0.4696 H   0  0  0  0  0  0  0  0  0  0  0  0
   -3.4132    0.5817    1.3053 H   0  0  0  0  0  0  0  0  0  0  0  0
   -2.4105   -0.6684    0.5101 H   0  0  0  0  0  0  0  0  0  0  0  0
    1.2842    2.4882    1.1877 H   0  0  0  0  0  0  0  0  0  0  0  0
    1.7629    2.4191   -0.5448 H   0  0  0  0  0  0  0  0  0  0  0  0
   -1.2629    2.4842   -1.1440 H   0  0  0  0  0  0  0  0  0  0  0  0
   -1.7908    2.4228    0.5745 H   0  0  0  0  0  0  0  0  0  0  0  0
    4.2518    2.5709    0.3155 H   0  0  0  0  0  0  0  0  0  0  0  0
    4.7137    1.4931    1.7158 H   0  0  0  0  0  0  0  0  0  0  0  0
    3.4799    2.7102    1.9410 H   0  0  0  0  0  0  0  0  0  0  0  0
   -4.2540    2.5705   -0.3542 H   0  0  0  0  0  0  0  0  0  0  0  0
   -4.6795    1.4803   -1.7563 H   0  0  0  0  0  0  0  0  0  0  0  0
   -3.4407    2.6964   -1.9606 H   0  0  0  0  0  0  0  0  0  0  0  0
    3.5139   -2.2082    1.3184 H   0  0  0  0  0  0  0  0  0  0  0  0
    5.3108   -2.3418    1.3018 H   0  0  0  0  0  0  0  0  0  0  0  0
    4.5304   -0.9031    2.0321 H   0  0  0  0  0  0  0  0  0  0  0  0
    5.3083   -2.7012   -1.1954 H   0  0  0  0  0  0  0  0  0  0  0  0
    3.5167   -2.6091   -1.2021 H   0  0  0  0  0  0  0  0  0  0  0  0
    4.4732   -1.5345   -2.2837 H   0  0  0  0  0  0  0  0  0  0  0  0
    6.6889   -0.8948   -0.2930 H   0  0  0  0  0  0  0  0  0  0  0  0
    5.8773    0.3248   -1.3334 H   0  0  0  0  0  0  0  0  0  0  0  0
    6.0485    0.5779    0.4261 H   0  0  0  0  0  0  0  0  0  0  0  0
   -3.4714   -2.2194   -1.2913 H   0  0  0  0  0  0  0  0  0  0  0  0
   -5.2674   -2.3632   -1.3227 H   0  0  0  0  0  0  0  0  0  0  0  0
   -4.4753   -0.9277   -2.0467 H   0  0  0  0  0  0  0  0  0  0  0  0
   -6.6969   -0.9066    0.2170 H   0  0  0  0  0  0  0  0  0  0  0  0
   -5.9210    0.3292    1.2656 H   0  0  0  0  0  0  0  0  0  0  0  0
   -6.0439    0.5611   -0.5011 H   0  0  0  0  0  0  0  0  0  0  0  0
   -5.3320   -2.6956    1.1774 H   0  0  0  0  0  0  0  0  0  0  0  0
   -3.5417   -2.5929    1.2327 H   0  0  0  0  0  0  0  0  0  0  0  0
   -4.5338   -1.5122    2.2754 H   0  0  0  0  0  0  0  0  0  0  0  0
  1  2  1  1  0  0  0
  1  3  2  0  0  0  0
  1  8  1  0  0  0  0
  1  9  1  0  0  0  0
  4  6  1  0  0  0  0
  4  8  1  0  0  0  0
  4 12  1  0  0  0  0
  4 20  1  1  0  0  0
  5  7  1  0  0  0  0
  5  9  1  0  0  0  0
  5 13  1  0  0  0  0
  5 21  1  6  0  0  0
  6 10  1  0  0  0  0
  6 22  1  0  0  0  0
  6 23  1  0  0  0  0
  7 11  1  0  0  0  0
  7 24  1  0  0  0  0
  7 25  1  0  0  0  0
  8 26  1  0  0  0  0
  8 27  1  0  0  0  0
  9 28  1  0  0  0  0
  9 29  1  0  0  0  0
 10 14  1  0  0  0  0
 10 15  1  0  0  0  0
 10 16  1  0  0  0  0
 11 17  1  0  0  0  0
 11 18  1  0  0  0  0
 11 19  1  0  0  0  0
 12 30  1  0  0  0  0
 12 31  1  0  0  0  0
 12 32  1  0  0  0  0
 13 33  1  0  0  0  0
 13 34  1  0  0  0  0
 13 35  1  0  0  0  0
 14 36  1  0  0  0  0
 14 37  1  0  0  0  0
 14 38  1  0  0  0  0
 15 39  1  0  0  0  0
 15 40  1  0  0  0  0
 15 41  1  0  0  0  0
 16 42  1  0  0  0  0
 16 43  1  0  0  0  0
 16 44  1  0  0  0  0
 17 45  1  0  0  0  0
 17 46  1  0  0  0  0
 17 47  1  0  0  0  0
 18 48  1  0  0  0  0
 18 49  1  0  0  0  0
 18 50  1  0  0  0  0
 19 51  1  0  0  0  0
 19 52  1  0  0  0  0
 19 53  1  0  0  0  0
M  CHG  1   2  -1
M  END
