
 OpenBabel09092614433D

 25 25  0  0  1  0  0  0  0  0999 V2000
   -0.1245    3.9684    0.0003 C   0  0  0  0  0  0  0  0  0  0  0  0
   -0.4575    2.4777    0.0010 C   0  0  0  0  0  0  0  0  0  0  0  0
    0.8150    1.6328   -0.0016 C   0  0  0  0  0  0  0  0  0  0  0  0
    0.6426    0.1817   -0.0013 N   0  0  0  0  0  0  0  0  0  0  0  0
   -0.4921   -0.6943    0.0010 C   0  0  1  0  0  0  0  0  0  0  0  0
   -1.9623   -0.3639    0.0040 C   0  0  0  0  0  0  0  0  0  0  0  0
   -0.0345   -2.0346    0.0001 N   0  0  0  0  0  0  0  0  0  0  0  0
   -0.8202   -3.2490    0.0017 C   0  0  0  0  0  0  0  0  0  0  0  0
    1.3697   -1.9903   -0.0027 C   0  0  0  0  0  0  0  0  0  0  0  0
    1.7717   -0.6730   -0.0036 C   0  0  0  0  0  0  0  0  0  0  0  0
   -1.0646    4.5595    0.0022 H   0  0  0  0  0  0  0  0  0  0  0  0
    0.4635    4.2350    0.9044 H   0  0  0  0  0  0  0  0  0  0  0  0
    0.4598    4.2350   -0.9062 H   0  0  0  0  0  0  0  0  0  0  0  0
   -1.0461    2.2651   -0.9167 H   0  0  0  0  0  0  0  0  0  0  0  0
   -1.0424    2.2651    0.9210 H   0  0  0  0  0  0  0  0  0  0  0  0
    1.4110    1.9067    0.8968 H   0  0  0  0  0  0  0  0  0  0  0  0
    1.4073    1.9067   -0.9025 H   0  0  0  0  0  0  0  0  0  0  0  0
   -2.2258    0.6964    0.0045 H   0  0  0  0  0  0  0  0  0  0  0  0
   -2.4311   -0.8102   -0.8974 H   0  0  0  0  0  0  0  0  0  0  0  0
   -2.4274   -0.8102    0.9073 H   0  0  0  0  0  0  0  0  0  0  0  0
   -1.9072   -3.0325    0.0039 H   0  0  0  0  0  0  0  0  0  0  0  0
   -0.5817   -3.8461   -0.9032 H   0  0  0  0  0  0  0  0  0  0  0  0
   -0.5780   -3.8461    0.9056 H   0  0  0  0  0  0  0  0  0  0  0  0
    2.0222   -2.8536   -0.0041 H   0  0  0  0  0  0  0  0  0  0  0  0
    2.8008   -0.3371   -0.0057 H   0  0  0  0  0  0  0  0  0  0  0  0
  1 11  1  0  0  0  0
  1 12  1  0  0  0  0
  2  1  1  0  0  0  0
  2 15  1  0  0  0  0
  3  4  1  0  0  0  0
  3  2  1  0  0  0  0
  3 16  1  0  0  0  0
  4  5  1  0  0  0  0
  4 10  1  0  0  0  0
  5  6  1  6  0  0  0
  5  7  1  0  0  0  0
  6 20  1  0  0  0  0
  7  9  1  0  0  0  0
  7  8  1  0  0  0  0
  8 23  1  0  0  0  0
  9 24  1  0  0  0  0
 10 25  1  0  0  0  0
 10  9  2  0  0  0  0
 13  1  1  0  0  0  0
 14  2  1  0  0  0  0
 17  3  1  0  0  0  0
 18  6  1  0  0  0  0
 19  6  1  0  0  0  0
 21  8  1  0  0  0  0
 22  8  1  0  0  0  0
M  END
