
 OpenBabel09092614493D

 23 23  0  0  0  0  0  0  0  0999 V2000
    0.1819   -2.5918   -0.0193 N   0  0  0  0  0  0  0  0  0  0  0  0
    0.6810   -3.9443   -0.0083 C   0  0  0  0  0  0  0  0  0  0  0  0
    0.9062   -1.4220   -0.4379 C   0  0  0  0  0  0  0  0  0  0  0  0
    0.0028   -0.3149   -0.2689 N   0  0  0  0  0  0  0  0  0  0  0  0
   -1.2180   -0.8221    0.2283 C   0  0  0  0  0  0  0  0  0  0  0  0
   -1.1090   -2.1887    0.3791 C   0  0  0  0  0  0  0  0  0  0  0  0
    0.2926    1.0692   -0.5729 C   0  0  0  0  0  0  0  0  0  0  0  0
    0.1933    1.9316    0.6916 C   0  0  0  0  0  0  0  0  0  0  0  0
    0.5229    3.4002    0.4066 C   0  0  0  0  0  0  0  0  0  0  0  0
   -0.3684    3.9452   -0.5290 O   0  0  0  0  0  0  0  0  0  0  0  0
    0.0522   -4.5792   -0.6670 H   0  0  0  0  0  0  0  0  0  0  0  0
    1.7293   -3.9729   -0.3742 H   0  0  0  0  0  0  0  0  0  0  0  0
    0.6496   -4.3449    1.0265 H   0  0  0  0  0  0  0  0  0  0  0  0
    1.9503   -1.3813   -0.8131 H   0  0  0  0  0  0  0  0  0  0  0  0
   -2.0954   -0.2299    0.4522 H   0  0  0  0  0  0  0  0  0  0  0  0
   -1.8845   -2.8505    0.7419 H   0  0  0  0  0  0  0  0  0  0  0  0
    1.3218    1.1504   -0.9866 H   0  0  0  0  0  0  0  0  0  0  0  0
   -0.4246    1.4280   -1.3422 H   0  0  0  0  0  0  0  0  0  0  0  0
   -0.8317    1.8668    1.1163 H   0  0  0  0  0  0  0  0  0  0  0  0
    0.9121    1.5471    1.4477 H   0  0  0  0  0  0  0  0  0  0  0  0
    0.4928    3.9897    1.3510 H   0  0  0  0  0  0  0  0  0  0  0  0
    1.5560    3.4844    0.0070 H   0  0  0  0  0  0  0  0  0  0  0  0
   -1.2169    4.1209   -0.0445 H   0  0  0  0  0  0  0  0  0  0  0  0
  1  2  1  0  0  0  0
  1  6  1  0  0  0  0
  2 13  1  0  0  0  0
  3  1  1  0  0  0  0
  4  3  1  0  0  0  0
  4  5  1  0  0  0  0
  5 15  1  0  0  0  0
  5  6  2  0  0  0  0
  6 16  1  0  0  0  0
  7  4  1  0  0  0  0
  7  8  1  0  0  0  0
  8 19  1  0  0  0  0
  8 20  1  0  0  0  0
  9  8  1  0  0  0  0
  9 21  1  0  0  0  0
 10 23  1  0  0  0  0
 10  9  1  0  0  0  0
 11  2  1  0  0  0  0
 12  2  1  0  0  0  0
 14  3  1  0  0  0  0
 17  7  1  0  0  0  0
 18  7  1  0  0  0  0
 22  9  1  0  0  0  0
M  END
