
 OpenBabel09092615043D

 29 29  0  0  0  0  0  0  0  0999 V2000
    0.2463   -2.7345   -0.9185 C   0  0  0  0  0  0  0  0  0  0  0  0
    0.4125   -1.2367   -1.2449 C   0  0  0  0  0  0  0  0  0  0  0  0
    0.4117   -0.3802   -0.0208 N   0  0  0  0  0  0  0  0  0  0  0  0
   -0.7769   -0.7436    0.8046 C   0  0  0  0  0  0  0  0  0  0  0  0
   -0.8804   -2.2641    1.0374 C   0  0  0  0  0  0  0  0  0  0  0  0
   -0.9470   -2.9544   -0.1941 O   0  0  0  0  0  0  0  0  0  0  0  0
    1.6753   -0.5792    0.7414 C   0  0  0  0  0  0  0  0  0  0  0  0
    0.3179    1.0456   -0.4772 C   0  0  0  0  0  0  0  0  0  0  0  0
    0.2742    2.1110    0.6476 C   0  0  0  0  0  0  0  0  0  0  0  0
    0.1780    3.5299    0.0740 C   0  0  0  0  0  0  0  0  0  0  0  0
   -0.9885    3.6916   -0.6875 O   0  0  0  0  0  0  0  0  0  0  0  0
    1.1191   -3.1614   -0.3797 H   0  0  0  0  0  0  0  0  0  0  0  0
    0.1828   -3.2939   -1.8757 H   0  0  0  0  0  0  0  0  0  0  0  0
   -0.4507   -0.9675   -1.8976 H   0  0  0  0  0  0  0  0  0  0  0  0
    1.3398   -1.0836   -1.8424 H   0  0  0  0  0  0  0  0  0  0  0  0
   -1.7098   -0.4320    0.2805 H   0  0  0  0  0  0  0  0  0  0  0  0
   -0.7559   -0.2366    1.7935 H   0  0  0  0  0  0  0  0  0  0  0  0
   -1.8133   -2.4681    1.6040 H   0  0  0  0  0  0  0  0  0  0  0  0
   -0.0505   -2.6553    1.6654 H   0  0  0  0  0  0  0  0  0  0  0  0
    1.6676   -0.0216    1.7004 H   0  0  0  0  0  0  0  0  0  0  0  0
    2.5555   -0.2487    0.1465 H   0  0  0  0  0  0  0  0  0  0  0  0
    1.8498   -1.6356    1.0185 H   0  0  0  0  0  0  0  0  0  0  0  0
   -0.6006    1.1779   -1.0940 H   0  0  0  0  0  0  0  0  0  0  0  0
    1.1846    1.2836   -1.1370 H   0  0  0  0  0  0  0  0  0  0  0  0
    1.1987    2.0704    1.2575 H   0  0  0  0  0  0  0  0  0  0  0  0
   -0.6007    1.9496    1.3101 H   0  0  0  0  0  0  0  0  0  0  0  0
    1.0579    3.7365   -0.5719 H   0  0  0  0  0  0  0  0  0  0  0  0
    0.2008    4.2788    0.8982 H   0  0  0  0  0  0  0  0  0  0  0  0
   -1.7380    3.7851   -0.0433 H   0  0  0  0  0  0  0  0  0  0  0  0
  1 12  1  0  0  0  0
  1  6  1  0  0  0  0
  2  1  1  0  0  0  0
  2  3  1  0  0  0  0
  3  7  1  0  0  0  0
  3  4  1  0  0  0  0
  4  5  1  0  0  0  0
  4 17  1  0  0  0  0
  5 18  1  0  0  0  0
  5 19  1  0  0  0  0
  6  5  1  0  0  0  0
  7 22  1  0  0  0  0
  7 20  1  0  0  0  0
  8  3  1  0  0  0  0
  8  9  1  0  0  0  0
  9 25  1  0  0  0  0
  9 26  1  0  0  0  0
 10  9  1  0  0  0  0
 10 28  1  0  0  0  0
 11 10  1  0  0  0  0
 11 29  1  0  0  0  0
 13  1  1  0  0  0  0
 14  2  1  0  0  0  0
 15  2  1  0  0  0  0
 16  4  1  0  0  0  0
 21  7  1  0  0  0  0
 23  8  1  0  0  0  0
 24  8  1  0  0  0  0
 27 10  1  0  0  0  0
M  END
