
 OpenBabel09222615393D

 25 25  0  0  1  0  0  0  0  0999 V2000
    2.0080    2.0270   -0.1931 C   0  0  0  0  0  0  0  0  0  0  0  0
    0.5381    2.4285   -0.3112 C   0  0  0  0  0  0  0  0  0  0  0  0
   -0.3773    1.5328    0.5465 C   0  0  1  0  0  0  0  0  0  0  0  0
   -1.8319    2.0054    0.4597 C   0  0  0  0  0  0  0  0  0  0  0  0
   -0.2823    0.1447    0.1308 N   0  0  0  0  0  0  0  0  0  0  0  0
   -0.6042   -0.3809   -1.1422 C   0  0  0  0  0  0  0  0  0  0  0  0
   -0.3743   -1.7404   -1.1399 C   0  0  0  0  0  0  0  0  0  0  0  0
    0.0996   -2.1223    0.1313 N   0  0  0  0  0  0  0  0  0  0  0  0
    0.4554   -3.4618    0.5280 C   0  0  0  0  0  0  0  0  0  0  0  0
    0.1659   -0.9463    0.9561 C   0  0  0  0  0  0  0  0  0  0  0  0
    2.6297    2.7096   -0.8099 H   0  0  0  0  0  0  0  0  0  0  0  0
    2.3428    2.0982    0.8636 H   0  0  0  0  0  0  0  0  0  0  0  0
    2.1626    0.9889   -0.5556 H   0  0  0  0  0  0  0  0  0  0  0  0
    0.2328    2.3777   -1.3790 H   0  0  0  0  0  0  0  0  0  0  0  0
    0.4390    3.4827    0.0285 H   0  0  0  0  0  0  0  0  0  0  0  0
   -0.0577    1.6199    1.6093 H   0  0  0  0  0  0  0  0  0  0  0  0
   -2.4749    1.3656    1.1009 H   0  0  0  0  0  0  0  0  0  0  0  0
   -1.9165    3.0544    0.8152 H   0  0  0  0  0  0  0  0  0  0  0  0
   -2.2044    1.9530   -0.5855 H   0  0  0  0  0  0  0  0  0  0  0  0
   -0.9707    0.1947   -1.9818 H   0  0  0  0  0  0  0  0  0  0  0  0
   -0.5297   -2.4110   -1.9747 H   0  0  0  0  0  0  0  0  0  0  0  0
    1.2741   -3.8377   -0.1206 H   0  0  0  0  0  0  0  0  0  0  0  0
    0.7979   -3.4745    1.5844 H   0  0  0  0  0  0  0  0  0  0  0  0
   -0.4274   -4.1273    0.4276 H   0  0  0  0  0  0  0  0  0  0  0  0
    0.5016   -0.8897    2.0127 H   0  0  0  0  0  0  0  0  0  0  0  0
  1 12  1  0  0  0  0
  2  1  1  0  0  0  0
  2 15  1  0  0  0  0
  2  3  1  0  0  0  0
  3 16  1  1  0  0  0
  4  3  1  0  0  0  0
  4 18  1  0  0  0  0
  4 17  1  0  0  0  0
  5  3  1  0  0  0  0
  5 10  1  0  0  0  0
  6  7  2  0  0  0  0
  6  5  1  0  0  0  0
  7  8  1  0  0  0  0
  8  9  1  0  0  0  0
  8 10  1  0  0  0  0
  9 24  1  0  0  0  0
  9 23  1  0  0  0  0
 10 25  1  0  0  0  0
 11  1  1  0  0  0  0
 13  1  1  0  0  0  0
 14  2  1  0  0  0  0
 19  4  1  0  0  0  0
 20  6  1  0  0  0  0
 21  7  1  0  0  0  0
 22  9  1  0  0  0  0
M  END
