
 OpenBabel09152609173D

 47 46  0  0  0  0  0  0  0  0999 V2000
    0.6182    0.0039   -0.3123 P   0  0  0  0  0  0  0  0  0  0  0  0
    2.2539    0.0159    0.6408 C   0  0  0  0  0  0  0  0  0  0  0  0
    3.4699    0.0246   -0.2819 C   0  0  0  0  0  0  0  0  0  0  0  0
    0.6283    1.8352   -0.8296 C   0  0  0  0  0  0  0  0  0  0  0  0
    0.5688    2.8935    0.2896 C   0  0  0  0  0  0  0  0  0  0  0  0
    0.5901    4.3059   -0.3101 C   0  0  0  0  0  0  0  0  0  0  0  0
    0.5313    5.3724    0.7804 C   0  0  0  0  0  0  0  0  0  0  0  0
    0.6548   -1.8271   -0.8291 C   0  0  0  0  0  0  0  0  0  0  0  0
    0.6105   -2.8858    0.2904 C   0  0  0  0  0  0  0  0  0  0  0  0
    0.6524   -4.2980   -0.3088 C   0  0  0  0  0  0  0  0  0  0  0  0
    0.6088   -5.3649    0.7821 C   0  0  0  0  0  0  0  0  0  0  0  0
   -1.0900   -0.0083    0.5044 C   0  0  0  0  0  0  0  0  0  0  0  0
   -2.2309   -0.0167   -0.5211 C   0  0  0  0  0  0  0  0  0  0  0  0
   -3.5945   -0.0265    0.1798 C   0  0  0  0  0  0  0  0  0  0  0  0
   -4.7356   -0.0350   -0.8334 C   0  0  0  0  0  0  0  0  0  0  0  0
    2.3078    0.8915    1.3089 H   0  0  0  0  0  0  0  0  0  0  0  0
    2.3205   -0.8586    1.3091 H   0  0  0  0  0  0  0  0  0  0  0  0
    4.3954    0.0314    0.3315 H   0  0  0  0  0  0  0  0  0  0  0  0
    3.4898   -0.8780   -0.9238 H   0  0  0  0  0  0  0  0  0  0  0  0
    3.4767    0.9273   -0.9240 H   0  0  0  0  0  0  0  0  0  0  0  0
    1.5445    2.0089   -1.4290 H   0  0  0  0  0  0  0  0  0  0  0  0
   -0.2305    1.9974   -1.5112 H   0  0  0  0  0  0  0  0  0  0  0  0
   -0.3600    2.7923    0.8802 H   0  0  0  0  0  0  0  0  0  0  0  0
    1.4368    2.8008    0.9677 H   0  0  0  0  0  0  0  0  0  0  0  0
    1.5226    4.4486   -0.8990 H   0  0  0  0  0  0  0  0  0  0  0  0
   -0.2824    4.4386   -0.9866 H   0  0  0  0  0  0  0  0  0  0  0  0
    0.5483    6.3809    0.3161 H   0  0  0  0  0  0  0  0  0  0  0  0
   -0.4034    5.2691    1.3718 H   0  0  0  0  0  0  0  0  0  0  0  0
    1.4054    5.2791    1.4597 H   0  0  0  0  0  0  0  0  0  0  0  0
   -0.2016   -2.0019   -1.5106 H   0  0  0  0  0  0  0  0  0  0  0  0
    1.5734   -1.9878   -1.4283 H   0  0  0  0  0  0  0  0  0  0  0  0
    1.4770   -2.7804    0.9686 H   0  0  0  0  0  0  0  0  0  0  0  0
   -0.3197   -2.7979    0.8809 H   0  0  0  0  0  0  0  0  0  0  0  0
   -0.2181   -4.4435   -0.9853 H   0  0  0  0  0  0  0  0  0  0  0  0
    1.5868   -4.4273   -0.8976 H   0  0  0  0  0  0  0  0  0  0  0  0
    0.6404   -6.3732    0.3180 H   0  0  0  0  0  0  0  0  0  0  0  0
    1.4814   -5.2587    1.4614 H   0  0  0  0  0  0  0  0  0  0  0  0
   -0.3273   -5.2749    1.3733 H   0  0  0  0  0  0  0  0  0  0  0  0
   -1.1879   -0.8836    1.1682 H   0  0  0  0  0  0  0  0  0  0  0  0
   -1.2006    0.8657    1.1679 H   0  0  0  0  0  0  0  0  0  0  0  0
   -2.1661    0.8847   -1.1639 H   0  0  0  0  0  0  0  0  0  0  0  0
   -2.1531   -0.9174   -1.1635 H   0  0  0  0  0  0  0  0  0  0  0  0
   -3.6786   -0.9307    0.8215 H   0  0  0  0  0  0  0  0  0  0  0  0
   -3.6917    0.8767    0.8211 H   0  0  0  0  0  0  0  0  0  0  0  0
   -5.7085   -0.0419   -0.2984 H   0  0  0  0  0  0  0  0  0  0  0  0
   -4.6890    0.8708   -1.4750 H   0  0  0  0  0  0  0  0  0  0  0  0
   -4.6759   -0.9401   -1.4747 H   0  0  0  0  0  0  0  0  0  0  0  0
  1 12  1  0  0  0  0
  1  2  1  0  0  0  0
  2 16  1  0  0  0  0
  2 17  1  0  0  0  0
  3  2  1  0  0  0  0
  3 18  1  0  0  0  0
  4  5  1  0  0  0  0
  4  1  1  0  0  0  0
  5 23  1  0  0  0  0
  5 24  1  0  0  0  0
  6  7  1  0  0  0  0
  6  5  1  0  0  0  0
  7 28  1  0  0  0  0
  7 29  1  0  0  0  0
  8  9  1  0  0  0  0
  8  1  1  0  0  0  0
  9 33  1  0  0  0  0
  9 32  1  0  0  0  0
 10 11  1  0  0  0  0
 10  9  1  0  0  0  0
 11 38  1  0  0  0  0
 11 37  1  0  0  0  0
 12 40  1  0  0  0  0
 12 39  1  0  0  0  0
 13 14  1  0  0  0  0
 13 12  1  0  0  0  0
 14 44  1  0  0  0  0
 14 43  1  0  0  0  0
 15 45  1  0  0  0  0
 15 14  1  0  0  0  0
 19  3  1  0  0  0  0
 20  3  1  0  0  0  0
 21  4  1  0  0  0  0
 22  4  1  0  0  0  0
 25  6  1  0  0  0  0
 26  6  1  0  0  0  0
 27  7  1  0  0  0  0
 30  8  1  0  0  0  0
 31  8  1  0  0  0  0
 34 10  1  0  0  0  0
 35 10  1  0  0  0  0
 36 11  1  0  0  0  0
 41 13  1  0  0  0  0
 42 13  1  0  0  0  0
 46 15  1  0  0  0  0
 47 15  1  0  0  0  0
M  END
