
 OpenBabel09152609053D

 59 58  0  0  0  0  0  0  0  0999 V2000
   -0.7130   -4.9040   -1.3931 C   0  0  0  0  0  0  0  0  0  0  0  0
   -0.3573   -5.4170    0.0037 C   0  0  0  0  0  0  0  0  0  0  0  0
    0.8625   -4.7519    0.6742 C   0  0  0  0  0  0  0  0  0  0  0  0
    0.6773   -3.3541    1.3028 C   0  0  0  0  0  0  0  0  0  0  0  0
    0.4542   -2.1963    0.3208 C   0  0  0  0  0  0  0  0  0  0  0  0
    0.4665   -0.8381    1.0694 C   0  0  0  0  0  0  0  0  0  0  0  0
    0.2612    0.4048    0.2333 N   0  0  0  0  0  0  0  0  0  0  0  0
   -1.0623    0.3411   -0.4823 C   0  0  0  0  0  0  0  0  0  0  0  0
   -2.3273    0.2303    0.4116 C   0  0  0  0  0  0  0  0  0  0  0  0
   -3.6288    0.1066   -0.4004 C   0  0  0  0  0  0  0  0  0  0  0  0
   -3.9616    1.3497   -1.2258 C   0  0  0  0  0  0  0  0  0  0  0  0
    0.3230    1.5562    1.2042 C   0  0  0  0  0  0  0  0  0  0  0  0
    0.2321    3.0184    0.6824 C   0  0  0  0  0  0  0  0  0  0  0  0
   -1.1768    3.5664    0.3901 C   0  0  0  0  0  0  0  0  0  0  0  0
   -1.1205    5.0553    0.0539 C   0  0  0  0  0  0  0  0  0  0  0  0
    1.3139    0.5064   -0.8519 C   0  0  0  0  0  0  0  0  0  0  0  0
    2.8264    0.4313   -0.4687 C   0  0  0  0  0  0  0  0  0  0  0  0
    3.5277    1.7286   -0.0131 C   0  0  0  0  0  0  0  0  0  0  0  0
    3.6461    2.7659   -1.1344 C   0  0  0  0  0  0  0  0  0  0  0  0
   -1.5199   -5.5407   -1.8137 H   0  0  0  0  0  0  0  0  0  0  0  0
   -1.0987   -3.8749   -1.3996 H   0  0  0  0  0  0  0  0  0  0  0  0
    0.1701   -4.9724   -2.0632 H   0  0  0  0  0  0  0  0  0  0  0  0
   -0.0905   -6.4877   -0.1378 H   0  0  0  0  0  0  0  0  0  0  0  0
   -1.2399   -5.3764    0.6776 H   0  0  0  0  0  0  0  0  0  0  0  0
    1.1269   -5.4125    1.5297 H   0  0  0  0  0  0  0  0  0  0  0  0
    1.7302   -4.7575   -0.0209 H   0  0  0  0  0  0  0  0  0  0  0  0
    1.6215   -3.1423    1.8523 H   0  0  0  0  0  0  0  0  0  0  0  0
   -0.1491   -3.3849    2.0464 H   0  0  0  0  0  0  0  0  0  0  0  0
   -0.5265   -2.3269   -0.1508 H   0  0  0  0  0  0  0  0  0  0  0  0
    1.2643   -2.2310   -0.4349 H   0  0  0  0  0  0  0  0  0  0  0  0
   -0.2973   -0.8912    1.8743 H   0  0  0  0  0  0  0  0  0  0  0  0
    1.4240   -0.7720    1.6275 H   0  0  0  0  0  0  0  0  0  0  0  0
   -1.0820   -0.5218   -1.1807 H   0  0  0  0  0  0  0  0  0  0  0  0
   -1.1514    1.2013   -1.1629 H   0  0  0  0  0  0  0  0  0  0  0  0
   -2.2686   -0.6887    1.0269 H   0  0  0  0  0  0  0  0  0  0  0  0
   -2.4220    1.0991    1.0910 H   0  0  0  0  0  0  0  0  0  0  0  0
   -4.4648   -0.0554    0.3146 H   0  0  0  0  0  0  0  0  0  0  0  0
   -3.5726   -0.7796   -1.0692 H   0  0  0  0  0  0  0  0  0  0  0  0
   -4.9343    1.1985   -1.7395 H   0  0  0  0  0  0  0  0  0  0  0  0
   -3.1956    1.5379   -2.0043 H   0  0  0  0  0  0  0  0  0  0  0  0
   -4.0466    2.2384   -0.5653 H   0  0  0  0  0  0  0  0  0  0  0  0
    1.2868    1.4884    1.7433 H   0  0  0  0  0  0  0  0  0  0  0  0
   -0.4202    1.4407    2.0229 H   0  0  0  0  0  0  0  0  0  0  0  0
    0.6123    3.6487    1.5176 H   0  0  0  0  0  0  0  0  0  0  0  0
    0.9052    3.1882   -0.1718 H   0  0  0  0  0  0  0  0  0  0  0  0
   -1.6587    3.0709   -0.4631 H   0  0  0  0  0  0  0  0  0  0  0  0
   -1.8170    3.4353    1.2888 H   0  0  0  0  0  0  0  0  0  0  0  0
   -2.1469    5.4335   -0.1377 H   0  0  0  0  0  0  0  0  0  0  0  0
   -0.6850    5.6297    0.8993 H   0  0  0  0  0  0  0  0  0  0  0  0
   -0.5046    5.2217   -0.8557 H   0  0  0  0  0  0  0  0  0  0  0  0
    1.1674   -0.3522   -1.5427 H   0  0  0  0  0  0  0  0  0  0  0  0
    1.1434    1.3838   -1.5092 H   0  0  0  0  0  0  0  0  0  0  0  0
    3.3781    0.1198   -1.3838 H   0  0  0  0  0  0  0  0  0  0  0  0
    3.0103   -0.3802    0.2584 H   0  0  0  0  0  0  0  0  0  0  0  0
    3.0604    2.1858    0.8728 H   0  0  0  0  0  0  0  0  0  0  0  0
    4.5667    1.4607    0.2782 H   0  0  0  0  0  0  0  0  0  0  0  0
    4.2045    3.6500   -0.7608 H   0  0  0  0  0  0  0  0  0  0  0  0
    4.2051    2.3382   -1.9937 H   0  0  0  0  0  0  0  0  0  0  0  0
    2.6608    3.1091   -1.4988 H   0  0  0  0  0  0  0  0  0  0  0  0
  1  2  1  0  0  0  0
  2 23  1  0  0  0  0
  2 24  1  0  0  0  0
  2  3  1  0  0  0  0
  3  4  1  0  0  0  0
  3 25  1  0  0  0  0
  4 28  1  0  0  0  0
  4 27  1  0  0  0  0
  5  6  1  0  0  0  0
  5  4  1  0  0  0  0
  6 32  1  0  0  0  0
  6 31  1  0  0  0  0
  7  6  1  0  0  0  0
  7 12  1  0  0  0  0
  8  7  1  0  0  0  0
  8  9  1  0  0  0  0
  9 35  1  0  0  0  0
  9 36  1  0  0  0  0
 10 37  1  0  0  0  0
 10  9  1  0  0  0  0
 11 10  1  0  0  0  0
 11 41  1  0  0  0  0
 12 42  1  0  0  0  0
 12 43  1  0  0  0  0
 13 44  1  0  0  0  0
 13 14  1  0  0  0  0
 13 12  1  0  0  0  0
 14 47  1  0  0  0  0
 15 48  1  0  0  0  0
 15 49  1  0  0  0  0
 15 14  1  0  0  0  0
 16 17  1  0  0  0  0
 16  7  1  0  0  0  0
 17 18  1  0  0  0  0
 17 54  1  0  0  0  0
 18 56  1  0  0  0  0
 18 55  1  0  0  0  0
 19 57  1  0  0  0  0
 19 18  1  0  0  0  0
 20  1  1  0  0  0  0
 21  1  1  0  0  0  0
 22  1  1  0  0  0  0
 26  3  1  0  0  0  0
 29  5  1  0  0  0  0
 30  5  1  0  0  0  0
 33  8  1  0  0  0  0
 34  8  1  0  0  0  0
 38 10  1  0  0  0  0
 39 11  1  0  0  0  0
 40 11  1  0  0  0  0
 45 13  1  0  0  0  0
 46 14  1  0  0  0  0
 50 15  1  0  0  0  0
 51 16  1  0  0  0  0
 52 16  1  0  0  0  0
 53 17  1  0  0  0  0
 58 19  1  0  0  0  0
 59 19  1  0  0  0  0
M  END
