
 OpenBabel09152609203D

 59 58  0  0  0  0  0  0  0  0999 V2000
    0.0196    0.7260   -0.2677 P   0  0  0  0  0  0  0  0  0  0  0  0
    0.0698    2.4010    0.6134 C   0  0  0  0  0  0  0  0  0  0  0  0
   -1.8106    0.7789   -0.7873 C   0  0  0  0  0  0  0  0  0  0  0  0
    1.8503    0.6681   -0.7849 C   0  0  0  0  0  0  0  0  0  0  0  0
    0.9463    2.4530    1.2808 H   0  0  0  0  0  0  0  0  0  0  0  0
   -0.8028    2.5059    1.2799 H   0  0  0  0  0  0  0  0  0  0  0  0
    0.1059    3.5803   -0.3672 C   0  0  0  0  0  0  0  0  0  0  0  0
    0.1459    4.9151    0.3862 C   0  0  0  0  0  0  0  0  0  0  0  0
   -0.7957    3.5614   -1.0125 H   0  0  0  0  0  0  0  0  0  0  0  0
    1.0055    3.5070   -1.0116 H   0  0  0  0  0  0  0  0  0  0  0  0
    0.1821    6.0942   -0.5819 C   0  0  0  0  0  0  0  0  0  0  0  0
    1.0509    4.9534    1.0312 H   0  0  0  0  0  0  0  0  0  0  0  0
   -0.7558    5.0080    1.0303 H   0  0  0  0  0  0  0  0  0  0  0  0
    0.2105    7.0451   -0.0094 H   0  0  0  0  0  0  0  0  0  0  0  0
   -0.7235    6.0934   -1.2253 H   0  0  0  0  0  0  0  0  0  0  0  0
    1.0866    6.0386   -1.2244 H   0  0  0  0  0  0  0  0  0  0  0  0
   -2.0049   -0.1068   -1.4246 H   0  0  0  0  0  0  0  0  0  0  0  0
   -1.9512    1.6686   -1.4330 H   0  0  0  0  0  0  0  0  0  0  0  0
   -2.8703    0.8161    0.3316 C   0  0  0  0  0  0  0  0  0  0  0  0
   -4.2810    0.8559   -0.2710 C   0  0  0  0  0  0  0  0  0  0  0  0
   -2.7475    1.7154    0.9625 H   0  0  0  0  0  0  0  0  0  0  0  0
   -2.8019   -0.0829    0.9709 H   0  0  0  0  0  0  0  0  0  0  0  0
   -5.3489    0.8932    0.8191 C   0  0  0  0  0  0  0  0  0  0  0  0
   -4.4448   -0.0461   -0.9004 H   0  0  0  0  0  0  0  0  0  0  0  0
   -4.3903    1.7602   -0.9089 H   0  0  0  0  0  0  0  0  0  0  0  0
   -6.3561    0.9214    0.3527 H   0  0  0  0  0  0  0  0  0  0  0  0
   -5.2243    1.7983    1.4511 H   0  0  0  0  0  0  0  0  0  0  0  0
   -5.2789   -0.0118    1.4596 H   0  0  0  0  0  0  0  0  0  0  0  0
    1.9914   -0.2276   -1.4223 H   0  0  0  0  0  0  0  0  0  0  0  0
    2.9089    0.6409    0.3352 C   0  0  0  0  0  0  0  0  0  0  0  0
    2.0453    1.5478   -1.4303 H   0  0  0  0  0  0  0  0  0  0  0  0
    4.3202    0.5953   -0.2656 C   0  0  0  0  0  0  0  0  0  0  0  0
    2.7854   -0.2526    0.9741 H   0  0  0  0  0  0  0  0  0  0  0  0
    2.8399    1.5457    0.9663 H   0  0  0  0  0  0  0  0  0  0  0  0
    5.3869    0.5676    0.8259 C   0  0  0  0  0  0  0  0  0  0  0  0
    4.4848    1.4916   -0.9030 H   0  0  0  0  0  0  0  0  0  0  0  0
    4.4299   -0.3147   -0.8951 H   0  0  0  0  0  0  0  0  0  0  0  0
    6.3947    0.5349    0.3608 H   0  0  0  0  0  0  0  0  0  0  0  0
    5.2615   -0.3317    1.4659 H   0  0  0  0  0  0  0  0  0  0  0  0
    5.3166    1.4783    1.4581 H   0  0  0  0  0  0  0  0  0  0  0  0
   -0.1072   -3.4571    0.4257 C   0  0  0  0  0  0  0  0  0  0  0  0
    0.8357   -2.1159   -0.9844 H   0  0  0  0  0  0  0  0  0  0  0  0
   -0.9655   -2.0615   -0.9858 H   0  0  0  0  0  0  0  0  0  0  0  0
   -0.1424   -4.6484   -0.5390 C   0  0  0  0  0  0  0  0  0  0  0  0
   -1.0133   -3.4812    1.0709 H   0  0  0  0  0  0  0  0  0  0  0  0
   -0.0314   -0.9403    0.6295 C   0  0  0  0  0  0  0  0  0  0  0  0
   -0.0666   -2.1289   -0.3399 C   0  0  0  0  0  0  0  0  0  0  0  0
   -0.9086   -0.9860    1.2965 H   0  0  0  0  0  0  0  0  0  0  0  0
    0.8404   -1.0388    1.2979 H   0  0  0  0  0  0  0  0  0  0  0  0
    0.7947   -3.5357    1.0723 H   0  0  0  0  0  0  0  0  0  0  0  0
   -0.1830   -5.9752    0.2276 C   0  0  0  0  0  0  0  0  0  0  0  0
    0.7636   -4.6251   -1.1842 H   0  0  0  0  0  0  0  0  0  0  0  0
   -1.0444   -4.5706   -1.1856 H   0  0  0  0  0  0  0  0  0  0  0  0
   -0.2180   -7.1634   -0.7291 C   0  0  0  0  0  0  0  0  0  0  0  0
   -1.0885   -6.0070    0.8722 H   0  0  0  0  0  0  0  0  0  0  0  0
    0.7180   -6.0614    0.8736 H   0  0  0  0  0  0  0  0  0  0  0  0
   -0.2469   -8.1089   -0.1476 H   0  0  0  0  0  0  0  0  0  0  0  0
    0.6883   -7.1686   -1.3716 H   0  0  0  0  0  0  0  0  0  0  0  0
   -1.1219   -7.1141   -1.3730 H   0  0  0  0  0  0  0  0  0  0  0  0
  1 46  1  0  0  0  0
  1  2  1  0  0  0  0
  2  5  1  0  0  0  0
  2  6  1  0  0  0  0
  3 19  1  0  0  0  0
  3  1  1  0  0  0  0
  4 30  1  0  0  0  0
  4  1  1  0  0  0  0
  7  2  1  0  0  0  0
  7  8  1  0  0  0  0
  8 12  1  0  0  0  0
  8 13  1  0  0  0  0
  9  7  1  0  0  0  0
 10  7  1  0  0  0  0
 11  8  1  0  0  0  0
 11 14  1  0  0  0  0
 15 11  1  0  0  0  0
 16 11  1  0  0  0  0
 17  3  1  0  0  0  0
 18  3  1  0  0  0  0
 19 22  1  0  0  0  0
 19 21  1  0  0  0  0
 20 23  1  0  0  0  0
 20 19  1  0  0  0  0
 23 28  1  0  0  0  0
 23 27  1  0  0  0  0
 24 20  1  0  0  0  0
 25 20  1  0  0  0  0
 26 23  1  0  0  0  0
 29  4  1  0  0  0  0
 30 33  1  0  0  0  0
 30 34  1  0  0  0  0
 31  4  1  0  0  0  0
 32 35  1  0  0  0  0
 32 30  1  0  0  0  0
 35 39  1  0  0  0  0
 35 40  1  0  0  0  0
 36 32  1  0  0  0  0
 37 32  1  0  0  0  0
 38 35  1  0  0  0  0
 41 45  1  0  0  0  0
 41 50  1  0  0  0  0
 42 47  1  0  0  0  0
 43 47  1  0  0  0  0
 44 41  1  0  0  0  0
 44 51  1  0  0  0  0
 46 48  1  0  0  0  0
 46 49  1  0  0  0  0
 47 46  1  0  0  0  0
 47 41  1  0  0  0  0
 51 56  1  0  0  0  0
 51 55  1  0  0  0  0
 52 44  1  0  0  0  0
 53 44  1  0  0  0  0
 54 57  1  0  0  0  0
 54 51  1  0  0  0  0
 58 54  1  0  0  0  0
 59 54  1  0  0  0  0
M  END
