
 OpenBabel09092615133D

 44 43  0  0  0  0  0  0  0  0999 V2000
   -0.7723   -2.5858   -0.1599 C   0  0  0  0  0  0  0  0  0  0  0  0
   -1.0489   -1.2024    0.4809 C   0  0  0  0  0  0  0  0  0  0  0  0
   -0.7656    0.0014   -0.3763 N   0  0  0  0  0  0  0  0  0  0  0  0
   -1.0442    1.2062    0.4808 C   0  0  0  0  0  0  0  0  0  0  0  0
   -0.7623    2.5886   -0.1602 C   0  0  0  0  0  0  0  0  0  0  0  0
   -1.7047    0.0031   -1.5314 C   0  0  0  0  0  0  0  0  0  0  0  0
   -1.5531   -0.8750   -2.1915 H   0  0  0  0  0  0  0  0  0  0  0  0
    0.6341   -0.0014   -0.9180 C   0  0  0  0  0  0  0  0  0  0  0  0
    1.7548   -0.0035    0.1475 C   0  0  0  0  0  0  0  0  0  0  0  0
   -1.5497    0.8806   -2.1917 H   0  0  0  0  0  0  0  0  0  0  0  0
   -2.7652    0.0052   -1.1940 H   0  0  0  0  0  0  0  0  0  0  0  0
   -0.4548   -1.1504    1.4201 H   0  0  0  0  0  0  0  0  0  0  0  0
   -2.1181   -1.1876    0.7974 H   0  0  0  0  0  0  0  0  0  0  0  0
    0.7844   -0.8786   -1.5837 H   0  0  0  0  0  0  0  0  0  0  0  0
    0.7879    0.8752   -1.5838 H   0  0  0  0  0  0  0  0  0  0  0  0
   -2.1135    1.1956    0.7973 H   0  0  0  0  0  0  0  0  0  0  0  0
   -0.4503    1.1521    1.4200 H   0  0  0  0  0  0  0  0  0  0  0  0
   -1.1147   -3.7130    0.8236 C   0  0  0  0  0  0  0  0  0  0  0  0
   -1.3893   -2.7281   -1.0695 H   0  0  0  0  0  0  0  0  0  0  0  0
    0.3002   -2.6826   -0.4258 H   0  0  0  0  0  0  0  0  0  0  0  0
    3.1357   -0.0063   -0.5199 C   0  0  0  0  0  0  0  0  0  0  0  0
    1.6772   -0.9071    0.7864 H   0  0  0  0  0  0  0  0  0  0  0  0
    1.6808    0.9004    0.7863 H   0  0  0  0  0  0  0  0  0  0  0  0
   -1.1004    3.7172    0.8232 C   0  0  0  0  0  0  0  0  0  0  0  0
   -1.3789    2.7331   -1.0698 H   0  0  0  0  0  0  0  0  0  0  0  0
    0.3105    2.6813   -0.4262 H   0  0  0  0  0  0  0  0  0  0  0  0
   -0.8439   -5.0843    0.2103 C   0  0  0  0  0  0  0  0  0  0  0  0
   -2.1892   -3.6524    1.1032 H   0  0  0  0  0  0  0  0  0  0  0  0
   -0.5002   -3.6061    1.7442 H   0  0  0  0  0  0  0  0  0  0  0  0
    4.2525   -0.0085    0.5203 C   0  0  0  0  0  0  0  0  0  0  0  0
    3.2440    0.8972   -1.1591 H   0  0  0  0  0  0  0  0  0  0  0  0
    3.2404   -0.9102   -1.1590 H   0  0  0  0  0  0  0  0  0  0  0  0
   -0.8244    5.0873    0.2098 C   0  0  0  0  0  0  0  0  0  0  0  0
   -0.4863    3.6081    1.7438 H   0  0  0  0  0  0  0  0  0  0  0  0
   -2.1751    3.6607    1.1028 H   0  0  0  0  0  0  0  0  0  0  0  0
    4.1824   -0.9138    1.1603 H   0  0  0  0  0  0  0  0  0  0  0  0
    4.1860    0.8971    1.1602 H   0  0  0  0  0  0  0  0  0  0  0  0
    5.2379   -0.0105    0.0085 H   0  0  0  0  0  0  0  0  0  0  0  0
   -1.4428    5.2344   -0.7013 H   0  0  0  0  0  0  0  0  0  0  0  0
    0.2494    5.1812   -0.0588 H   0  0  0  0  0  0  0  0  0  0  0  0
   -1.0780    5.8815    0.9433 H   0  0  0  0  0  0  0  0  0  0  0  0
    0.2296   -5.1822   -0.0581 H   0  0  0  0  0  0  0  0  0  0  0  0
   -1.1005   -5.8773    0.9440 H   0  0  0  0  0  0  0  0  0  0  0  0
   -1.4628   -5.2291   -0.7007 H   0  0  0  0  0  0  0  0  0  0  0  0
  1  2  1  0  0  0  0
  1 18  1  0  0  0  0
  2 13  1  0  0  0  0
  2 12  1  0  0  0  0
  3  2  1  0  0  0  0
  3  4  1  0  0  0  0
  4 16  1  0  0  0  0
  4 17  1  0  0  0  0
  5  4  1  0  0  0  0
  5 24  1  0  0  0  0
  6 11  1  0  0  0  0
  6  3  1  0  0  0  0
  7  6  1  0  0  0  0
  8  3  1  0  0  0  0
  8  9  1  0  0  0  0
  9 23  1  0  0  0  0
  9 22  1  0  0  0  0
 10  6  1  0  0  0  0
 14  8  1  0  0  0  0
 15  8  1  0  0  0  0
 18 28  1  0  0  0  0
 18 29  1  0  0  0  0
 19  1  1  0  0  0  0
 20  1  1  0  0  0  0
 21  9  1  0  0  0  0
 21 30  1  0  0  0  0
 24 35  1  0  0  0  0
 24 34  1  0  0  0  0
 25  5  1  0  0  0  0
 26  5  1  0  0  0  0
 27 18  1  0  0  0  0
 27 43  1  0  0  0  0
 30 37  1  0  0  0  0
 30 36  1  0  0  0  0
 31 21  1  0  0  0  0
 32 21  1  0  0  0  0
 33 24  1  0  0  0  0
 33 41  1  0  0  0  0
 38 30  1  0  0  0  0
 39 33  1  0  0  0  0
 40 33  1  0  0  0  0
 42 27  1  0  0  0  0
 44 27  1  0  0  0  0
M  END
