
 OpenBabel09152609153D

 44 43  0  0  0  0  0  0  0  0999 V2000
   -0.8165    0.0039   -0.2881 P   0  0  0  0  0  0  0  0  0  0  0  0
    1.0285   -0.0057   -0.7433 C   0  0  0  0  0  0  0  0  0  0  0  0
    2.0386   -0.0112    0.4190 C   0  0  0  0  0  0  0  0  0  0  0  0
    3.4749   -0.0186   -0.1206 C   0  0  0  0  0  0  0  0  0  0  0  0
    4.4937   -0.0242    1.0160 C   0  0  0  0  0  0  0  0  0  0  0  0
    1.2241    0.8825   -1.3771 H   0  0  0  0  0  0  0  0  0  0  0  0
    1.2148   -0.8957   -1.3774 H   0  0  0  0  0  0  0  0  0  0  0  0
    1.9074   -0.9114    1.0478 H   0  0  0  0  0  0  0  0  0  0  0  0
    1.9168    0.8900    1.0481 H   0  0  0  0  0  0  0  0  0  0  0  0
    3.6345   -0.9230   -0.7478 H   0  0  0  0  0  0  0  0  0  0  0  0
    3.6440    0.8842   -0.7474 H   0  0  0  0  0  0  0  0  0  0  0  0
    4.3730    0.8817    1.6474 H   0  0  0  0  0  0  0  0  0  0  0  0
    4.3635   -0.9291    1.6471 H   0  0  0  0  0  0  0  0  0  0  0  0
    5.5211   -0.0295    0.5949 H   0  0  0  0  0  0  0  0  0  0  0  0
   -2.6657    0.0136   -0.6165 C   0  0  0  0  0  0  0  0  0  0  0  0
   -2.9554   -0.8785   -1.2059 H   0  0  0  0  0  0  0  0  0  0  0  0
   -3.2365    0.0164    0.3354 H   0  0  0  0  0  0  0  0  0  0  0  0
   -2.9460    0.9089   -1.2056 H   0  0  0  0  0  0  0  0  0  0  0  0
   -0.8787   -1.6444    0.6328 C   0  0  0  0  0  0  0  0  0  0  0  0
   -0.8267   -2.8427   -0.3232 C   0  0  0  0  0  0  0  0  0  0  0  0
   -0.9065   -4.1630    0.4518 C   0  0  0  0  0  0  0  0  0  0  0  0
   -0.8534   -5.3608   -0.4921 C   0  0  0  0  0  0  0  0  0  0  0  0
   -0.0491   -1.7132    1.3581 H   0  0  0  0  0  0  0  0  0  0  0  0
   -1.8137   -1.6897    1.2307 H   0  0  0  0  0  0  0  0  0  0  0  0
    0.1217   -2.8226   -0.8982 H   0  0  0  0  0  0  0  0  0  0  0  0
   -1.6750   -2.7907   -1.0371 H   0  0  0  0  0  0  0  0  0  0  0  0
   -1.8572   -4.2020    1.0271 H   0  0  0  0  0  0  0  0  0  0  0  0
   -0.0552   -4.2303    1.1641 H   0  0  0  0  0  0  0  0  0  0  0  0
    0.0984   -5.3592   -1.0650 H   0  0  0  0  0  0  0  0  0  0  0  0
   -1.7071   -5.3308   -1.2024 H   0  0  0  0  0  0  0  0  0  0  0  0
   -0.9129   -6.3010    0.0957 H   0  0  0  0  0  0  0  0  0  0  0  0
   -0.8614    1.6524    0.6334 C   0  0  0  0  0  0  0  0  0  0  0  0
   -1.7959    1.7072    1.2314 H   0  0  0  0  0  0  0  0  0  0  0  0
   -0.0312    1.7122    1.3587 H   0  0  0  0  0  0  0  0  0  0  0  0
   -0.7969    2.8504   -0.3222 C   0  0  0  0  0  0  0  0  0  0  0  0
   -0.8628    4.1712    0.4534 C   0  0  0  0  0  0  0  0  0  0  0  0
    0.1512    2.8206   -0.8972 H   0  0  0  0  0  0  0  0  0  0  0  0
   -1.6457    2.8075   -1.0361 H   0  0  0  0  0  0  0  0  0  0  0  0
   -0.7973    5.3687   -0.4902 C   0  0  0  0  0  0  0  0  0  0  0  0
   -1.8131    4.2199    1.0287 H   0  0  0  0  0  0  0  0  0  0  0  0
   -0.0109    4.2293    1.1657 H   0  0  0  0  0  0  0  0  0  0  0  0
    0.1544    5.3573   -1.0631 H   0  0  0  0  0  0  0  0  0  0  0  0
   -1.6513    5.3479   -1.2004 H   0  0  0  0  0  0  0  0  0  0  0  0
   -0.8470    6.3092    0.0980 H   0  0  0  0  0  0  0  0  0  0  0  0
  1 19  1  0  0  0  0
  1 32  1  0  0  0  0
  2  1  1  0  0  0  0
  2  3  1  0  0  0  0
  3  9  1  0  0  0  0
  3  8  1  0  0  0  0
  4  3  1  0  0  0  0
  4  5  1  0  0  0  0
  5 12  1  0  0  0  0
  5 13  1  0  0  0  0
  6  2  1  0  0  0  0
  7  2  1  0  0  0  0
 10  4  1  0  0  0  0
 11  4  1  0  0  0  0
 14  5  1  0  0  0  0
 15 17  1  0  0  0  0
 15  1  1  0  0  0  0
 16 15  1  0  0  0  0
 18 15  1  0  0  0  0
 19 24  1  0  0  0  0
 19 23  1  0  0  0  0
 20 19  1  0  0  0  0
 20 21  1  0  0  0  0
 21 27  1  0  0  0  0
 21 28  1  0  0  0  0
 22 21  1  0  0  0  0
 22 31  1  0  0  0  0
 25 20  1  0  0  0  0
 26 20  1  0  0  0  0
 29 22  1  0  0  0  0
 30 22  1  0  0  0  0
 32 33  1  0  0  0  0
 32 34  1  0  0  0  0
 35 32  1  0  0  0  0
 35 36  1  0  0  0  0
 36 40  1  0  0  0  0
 36 41  1  0  0  0  0
 37 35  1  0  0  0  0
 38 35  1  0  0  0  0
 39 36  1  0  0  0  0
 39 44  1  0  0  0  0
 42 39  1  0  0  0  0
 43 39  1  0  0  0  0
M  END
