
 OpenBabel09152609123D

 47 46  0  0  0  0  0  0  0  0999 V2000
   -2.5771   -2.8259   -0.2751 C   0  0  0  0  0  0  0  0  0  0  0  0
   -1.2017   -2.9457   -0.9565 C   0  0  0  0  0  0  0  0  0  0  0  0
    0.0005   -2.8011   -0.0616 N   0  0  0  0  0  0  0  0  0  0  0  0
    1.2082   -2.9452   -0.9492 C   0  0  0  0  0  0  0  0  0  0  0  0
    2.5793   -2.8247   -0.2594 C   0  0  0  0  0  0  0  0  0  0  0  0
   -0.0019   -1.4686    0.6412 C   0  0  0  0  0  0  0  0  0  0  0  0
    0.0007   -0.2141   -0.2667 C   0  0  0  0  0  0  0  0  0  0  0  0
   -0.0021    1.0656    0.5806 C   0  0  0  0  0  0  0  0  0  0  0  0
    0.0006    2.3163   -0.3069 C   0  0  0  0  0  0  0  0  0  0  0  0
   -0.0023    3.5933    0.5418 C   0  0  0  0  0  0  0  0  0  0  0  0
    0.0006    4.8438   -0.3454 C   0  0  0  0  0  0  0  0  0  0  0  0
   -0.0022    6.1201    0.5037 C   0  0  0  0  0  0  0  0  0  0  0  0
   -0.0026   -3.8488    1.0204 C   0  0  0  0  0  0  0  0  0  0  0  0
   -0.0009   -5.3155    0.5520 C   0  0  0  0  0  0  0  0  0  0  0  0
   -1.1784   -3.9235   -1.4832 H   0  0  0  0  0  0  0  0  0  0  0  0
   -1.1722   -2.1932   -1.7731 H   0  0  0  0  0  0  0  0  0  0  0  0
    0.8741   -1.3948    1.3215 H   0  0  0  0  0  0  0  0  0  0  0  0
   -0.8822   -1.3950    1.3160 H   0  0  0  0  0  0  0  0  0  0  0  0
    1.1886   -3.9231   -1.4760 H   0  0  0  0  0  0  0  0  0  0  0  0
    1.1833   -2.1927   -1.7660 H   0  0  0  0  0  0  0  0  0  0  0  0
   -0.8829   -3.7178    1.6856 H   0  0  0  0  0  0  0  0  0  0  0  0
    0.8736   -3.7175    1.6909 H   0  0  0  0  0  0  0  0  0  0  0  0
    2.7254   -1.8268    0.1989 H   0  0  0  0  0  0  0  0  0  0  0  0
    3.3751   -2.9511   -1.0236 H   0  0  0  0  0  0  0  0  0  0  0  0
    2.7308   -3.6157    0.5011 H   0  0  0  0  0  0  0  0  0  0  0  0
   -2.7264   -1.8280    0.1824 H   0  0  0  0  0  0  0  0  0  0  0  0
   -3.3681   -2.9526   -1.0442 H   0  0  0  0  0  0  0  0  0  0  0  0
   -2.7328   -3.6169    0.4845 H   0  0  0  0  0  0  0  0  0  0  0  0
   -0.9062   -5.5636   -0.0361 H   0  0  0  0  0  0  0  0  0  0  0  0
   -0.0034   -5.9748    1.4456 H   0  0  0  0  0  0  0  0  0  0  0  0
    0.9081   -5.5632   -0.0306 H   0  0  0  0  0  0  0  0  0  0  0  0
   -0.9020   -0.1982   -0.9103 H   0  0  0  0  0  0  0  0  0  0  0  0
    0.9074   -0.1979   -0.9046 H   0  0  0  0  0  0  0  0  0  0  0  0
   -0.9085    1.0770    1.2257 H   0  0  0  0  0  0  0  0  0  0  0  0
    0.9001    1.0772    1.2314 H   0  0  0  0  0  0  0  0  0  0  0  0
   -0.9017    2.3066   -0.9577 H   0  0  0  0  0  0  0  0  0  0  0  0
    0.9070    2.3067   -0.9519 H   0  0  0  0  0  0  0  0  0  0  0  0
    0.9000    3.6032    1.1926 H   0  0  0  0  0  0  0  0  0  0  0  0
   -0.9087    3.6031    1.1867 H   0  0  0  0  0  0  0  0  0  0  0  0
   -0.9017    4.8342   -0.9962 H   0  0  0  0  0  0  0  0  0  0  0  0
    0.9071    4.8342   -0.9903 H   0  0  0  0  0  0  0  0  0  0  0  0
    0.0006    7.3670   -0.3758 C   0  0  0  0  0  0  0  0  0  0  0  0
    0.8993    6.1382    1.1544 H   0  0  0  0  0  0  0  0  0  0  0  0
   -0.9080    6.1381    1.1484 H   0  0  0  0  0  0  0  0  0  0  0  0
   -0.9027    7.3858   -1.0221 H   0  0  0  0  0  0  0  0  0  0  0  0
    0.9082    7.3858   -1.0162 H   0  0  0  0  0  0  0  0  0  0  0  0
   -0.0015    8.2742    0.2645 H   0  0  0  0  0  0  0  0  0  0  0  0
  1 26  1  0  0  0  0
  1 28  1  0  0  0  0
  2  1  1  0  0  0  0
  2  3  1  0  0  0  0
  3  6  1  0  0  0  0
  3 13  1  0  0  0  0
  4  5  1  0  0  0  0
  4  3  1  0  0  0  0
  5 23  1  0  0  0  0
  5 25  1  0  0  0  0
  6 18  1  0  0  0  0
  6 17  1  0  0  0  0
  7  8  1  0  0  0  0
  7  6  1  0  0  0  0
  8 34  1  0  0  0  0
  8 35  1  0  0  0  0
  9 10  1  0  0  0  0
  9  8  1  0  0  0  0
 10 39  1  0  0  0  0
 10 38  1  0  0  0  0
 11 12  1  0  0  0  0
 11 10  1  0  0  0  0
 12 44  1  0  0  0  0
 12 43  1  0  0  0  0
 13 21  1  0  0  0  0
 13 22  1  0  0  0  0
 14 13  1  0  0  0  0
 14 30  1  0  0  0  0
 15  2  1  0  0  0  0
 16  2  1  0  0  0  0
 19  4  1  0  0  0  0
 20  4  1  0  0  0  0
 24  5  1  0  0  0  0
 27  1  1  0  0  0  0
 29 14  1  0  0  0  0
 31 14  1  0  0  0  0
 32  7  1  0  0  0  0
 33  7  1  0  0  0  0
 36  9  1  0  0  0  0
 37  9  1  0  0  0  0
 40 11  1  0  0  0  0
 41 11  1  0  0  0  0
 42 47  1  0  0  0  0
 42 12  1  0  0  0  0
 45 42  1  0  0  0  0
 46 42  1  0  0  0  0
M  END
