
 OpenBabel09222615383D

 25 25  0  0  0  0  0  0  0  0999 V2000
    1.1917    2.4253   -0.0001 C   0  0  0  0  0  0  0  0  0  0  0  0
   -0.1149    1.6014    0.0004 C   0  0  0  0  0  0  0  0  0  0  0  0
   -0.9239    1.9643    1.2597 C   0  0  0  0  0  0  0  0  0  0  0  0
   -0.9251    1.9646   -1.2581 C   0  0  0  0  0  0  0  0  0  0  0  0
    0.1562    0.1623    0.0001 N   0  0  0  0  0  0  0  0  0  0  0  0
    1.4192   -0.4851   -0.0006 C   0  0  0  0  0  0  0  0  0  0  0  0
    1.2358   -1.8508   -0.0006 C   0  0  0  0  0  0  0  0  0  0  0  0
   -0.1445   -2.1265    0.0000 N   0  0  0  0  0  0  0  0  0  0  0  0
   -0.7526   -3.4339    0.0003 C   0  0  0  0  0  0  0  0  0  0  0  0
   -0.8498   -0.8754    0.0005 C   0  0  0  0  0  0  0  0  0  0  0  0
    1.7980    2.2005   -0.9039 H   0  0  0  0  0  0  0  0  0  0  0  0
    0.9695    3.5146    0.0002 H   0  0  0  0  0  0  0  0  0  0  0  0
    1.7988    2.2003    0.9031 H   0  0  0  0  0  0  0  0  0  0  0  0
   -1.8887    1.4146    1.2845 H   0  0  0  0  0  0  0  0  0  0  0  0
   -1.1485    3.0527    1.2846 H   0  0  0  0  0  0  0  0  0  0  0  0
   -0.3508    1.7016    2.1749 H   0  0  0  0  0  0  0  0  0  0  0  0
   -0.3528    1.7022   -2.1738 H   0  0  0  0  0  0  0  0  0  0  0  0
   -1.8899    1.4149   -1.2821 H   0  0  0  0  0  0  0  0  0  0  0  0
   -1.1496    3.0530   -1.2825 H   0  0  0  0  0  0  0  0  0  0  0  0
    2.3834    0.0044   -0.0010 H   0  0  0  0  0  0  0  0  0  0  0  0
    2.0215   -2.5949   -0.0011 H   0  0  0  0  0  0  0  0  0  0  0  0
    0.0262   -4.2259   -0.0002 H   0  0  0  0  0  0  0  0  0  0  0  0
   -1.3839   -3.5503    0.9058 H   0  0  0  0  0  0  0  0  0  0  0  0
   -1.3848   -3.5502   -0.9047 H   0  0  0  0  0  0  0  0  0  0  0  0
   -1.9517   -0.7415    0.0011 H   0  0  0  0  0  0  0  0  0  0  0  0
  1 12  1  0  0  0  0
  1 13  1  0  0  0  0
  2  1  1  0  0  0  0
  2  3  1  0  0  0  0
  3 14  1  0  0  0  0
  3 15  1  0  0  0  0
  3 16  1  0  0  0  0
  4  2  1  0  0  0  0
  5  6  1  0  0  0  0
  5  2  1  0  0  0  0
  6  7  2  0  0  0  0
  7 21  1  0  0  0  0
  8  7  1  0  0  0  0
  8  9  1  0  0  0  0
  9 23  1  0  0  0  0
 10  5  1  0  0  0  0
 10  8  1  0  0  0  0
 11  1  1  0  0  0  0
 17  4  1  0  0  0  0
 18  4  1  0  0  0  0
 19  4  1  0  0  0  0
 20  6  1  0  0  0  0
 22  9  1  0  0  0  0
 24  9  1  0  0  0  0
 25 10  1  0  0  0  0
M  END
