
 OpenBabel09152609453D

 22 21  0  0  0  0  0  0  0  0999 V2000
   -1.7422   -0.8020   -0.1266 C   0  0  0  0  0  0  0  0  0  0  0  0
   -0.3621    0.3813   -0.3287 S   0  0  0  0  0  0  0  0  0  0  0  0
    0.8062    1.7837   -0.4869 C   0  0  0  0  0  0  0  0  0  0  0  0
    0.8057   -0.8981   -0.9827 C   0  0  0  0  0  0  0  0  0  0  0  0
    1.8097    1.8277    0.6571 C   0  0  0  0  0  0  0  0  0  0  0  0
    1.2900    1.7996   -1.4862 H   0  0  0  0  0  0  0  0  0  0  0  0
    0.1946    2.7098   -0.4537 H   0  0  0  0  0  0  0  0  0  0  0  0
    1.6910   -0.4202   -1.4499 H   0  0  0  0  0  0  0  0  0  0  0  0
    1.2999   -1.8459    0.1069 C   0  0  0  0  0  0  0  0  0  0  0  0
    0.3319   -1.4496   -1.8218 H   0  0  0  0  0  0  0  0  0  0  0  0
   -3.0410   -0.0218    0.0174 C   0  0  0  0  0  0  0  0  0  0  0  0
   -1.8563   -1.4364   -1.0312 H   0  0  0  0  0  0  0  0  0  0  0  0
   -1.6032   -1.4034    0.7957 H   0  0  0  0  0  0  0  0  0  0  0  0
    2.4440    2.7335    0.5583 H   0  0  0  0  0  0  0  0  0  0  0  0
    1.2783    1.8658    1.6314 H   0  0  0  0  0  0  0  0  0  0  0  0
    2.4693    0.9379    0.6307 H   0  0  0  0  0  0  0  0  0  0  0  0
    2.0178   -2.5702   -0.3320 H   0  0  0  0  0  0  0  0  0  0  0  0
    1.8110   -1.2834    0.9139 H   0  0  0  0  0  0  0  0  0  0  0  0
    0.4593   -2.4191    0.5454 H   0  0  0  0  0  0  0  0  0  0  0  0
   -3.8901   -0.7268    0.1409 H   0  0  0  0  0  0  0  0  0  0  0  0
   -2.9941    0.6397    0.9087 H   0  0  0  0  0  0  0  0  0  0  0  0
   -3.2197    0.5980   -0.8872 H   0  0  0  0  0  0  0  0  0  0  0  0
  1 13  1  0  0  0  0
  1 11  1  0  0  0  0
  1  2  1  0  0  0  0
  3  7  1  0  0  0  0
  3  5  1  0  0  0  0
  3  2  1  0  0  0  0
  4  8  1  0  0  0  0
  4  9  1  0  0  0  0
  4  2  1  0  0  0  0
  5 15  1  0  0  0  0
  6  3  1  0  0  0  0
  9 18  1  0  0  0  0
 10  4  1  0  0  0  0
 11 21  1  0  0  0  0
 12  1  1  0  0  0  0
 14  5  1  0  0  0  0
 16  5  1  0  0  0  0
 17  9  1  0  0  0  0
 19  9  1  0  0  0  0
 20 11  1  0  0  0  0
 22 11  1  0  0  0  0
M  END
