
 OpenBabel09092615063D

 44 43  0  0  0  0  0  0  0  0999 V2000
   -0.9831    5.9388   -0.0398 C   0  0  0  0  0  0  0  0  0  0  0  0
    0.0437    4.8688    0.0016 N   0  0  0  0  0  0  0  0  0  0  0  0
    0.8344    5.0330    1.2448 C   0  0  0  0  0  0  0  0  0  0  0  0
    0.9316    5.0326   -1.1743 C   0  0  0  0  0  0  0  0  0  0  0  0
   -0.6642    3.5511   -0.0266 C   0  0  0  0  0  0  0  0  0  0  0  0
   -1.5986    5.8702   -0.9651 H   0  0  0  0  0  0  0  0  0  0  0  0
   -0.5168    6.9499   -0.0212 H   0  0  0  0  0  0  0  0  0  0  0  0
   -1.6709    5.8704    0.8331 H   0  0  0  0  0  0  0  0  0  0  0  0
    0.1977    4.8882    2.1460 H   0  0  0  0  0  0  0  0  0  0  0  0
    1.6803    4.3156    1.2927 H   0  0  0  0  0  0  0  0  0  0  0  0
    1.2822    6.0508    1.3020 H   0  0  0  0  0  0  0  0  0  0  0  0
    1.3825    6.0504   -1.1957 H   0  0  0  0  0  0  0  0  0  0  0  0
    1.7786    4.3152   -1.1539 H   0  0  0  0  0  0  0  0  0  0  0  0
    0.3692    4.8874   -2.1236 H   0  0  0  0  0  0  0  0  0  0  0  0
   -1.3596    3.4858    0.8423 H   0  0  0  0  0  0  0  0  0  0  0  0
   -1.2879    3.4856   -0.9484 H   0  0  0  0  0  0  0  0  0  0  0  0
   -0.5928    1.0176   -0.0234 C   0  0  0  0  0  0  0  0  0  0  0  0
    0.2475    2.3015    0.0100 C   0  0  0  0  0  0  0  0  0  0  0  0
   -1.2042    1.0028   -0.9528 H   0  0  0  0  0  0  0  0  0  0  0  0
   -1.2763    1.0030    0.8543 H   0  0  0  0  0  0  0  0  0  0  0  0
    0.9250    2.2923   -0.8682 H   0  0  0  0  0  0  0  0  0  0  0  0
    0.8527    2.2925    0.9396 H   0  0  0  0  0  0  0  0  0  0  0  0
   -0.5411   -1.5099   -0.0211 C   0  0  0  0  0  0  0  0  0  0  0  0
    0.3004   -0.2286    0.0123 C   0  0  0  0  0  0  0  0  0  0  0  0
   -1.1524   -1.5232   -0.9505 H   0  0  0  0  0  0  0  0  0  0  0  0
   -1.2244   -1.5231    0.8568 H   0  0  0  0  0  0  0  0  0  0  0  0
    0.9117   -0.2155    0.9417 H   0  0  0  0  0  0  0  0  0  0  0  0
    0.9837   -0.2157   -0.8655 H   0  0  0  0  0  0  0  0  0  0  0  0
   -0.4897   -4.0372   -0.0189 C   0  0  0  0  0  0  0  0  0  0  0  0
    0.3519   -2.7559    0.0145 C   0  0  0  0  0  0  0  0  0  0  0  0
   -1.1010   -4.0505   -0.9483 H   0  0  0  0  0  0  0  0  0  0  0  0
   -1.1728   -4.0504    0.8590 H   0  0  0  0  0  0  0  0  0  0  0  0
    0.9632   -2.7426    0.9439 H   0  0  0  0  0  0  0  0  0  0  0  0
    1.0351   -2.7427   -0.8634 H   0  0  0  0  0  0  0  0  0  0  0  0
   -0.4387   -6.5638   -0.0168 C   0  0  0  0  0  0  0  0  0  0  0  0
    0.4033   -5.2831    0.0166 C   0  0  0  0  0  0  0  0  0  0  0  0
   -1.0499   -6.5852   -0.9454 H   0  0  0  0  0  0  0  0  0  0  0  0
   -1.1216   -6.5852    0.8604 H   0  0  0  0  0  0  0  0  0  0  0  0
    1.0864   -5.2703   -0.8614 H   0  0  0  0  0  0  0  0  0  0  0  0
    1.0146   -5.2702    0.9460 H   0  0  0  0  0  0  0  0  0  0  0  0
    0.4465   -7.8062    0.0183 C   0  0  0  0  0  0  0  0  0  0  0  0
    1.0535   -7.8217    0.9486 H   0  0  0  0  0  0  0  0  0  0  0  0
    1.1253   -7.8217   -0.8609 H   0  0  0  0  0  0  0  0  0  0  0  0
   -0.1886   -8.7167   -0.0068 H   0  0  0  0  0  0  0  0  0  0  0  0
  1  7  1  0  0  0  0
  1  2  1  0  0  0  0
  1  8  1  0  0  0  0
  2  3  1  0  0  0  0
  3 11  1  0  0  0  0
  3 10  1  0  0  0  0
  3  9  1  0  0  0  0
  4 12  1  0  0  0  0
  4 13  1  0  0  0  0
  4  2  1  0  0  0  0
  5 18  1  0  0  0  0
  5  2  1  0  0  0  0
  5 15  1  0  0  0  0
  6  1  1  0  0  0  0
 14  4  1  0  0  0  0
 16  5  1  0  0  0  0
 17 20  1  0  0  0  0
 18 17  1  0  0  0  0
 18 22  1  0  0  0  0
 19 17  1  0  0  0  0
 21 18  1  0  0  0  0
 23 26  1  0  0  0  0
 24 17  1  0  0  0  0
 24 23  1  0  0  0  0
 24 27  1  0  0  0  0
 25 23  1  0  0  0  0
 28 24  1  0  0  0  0
 29 36  1  0  0  0  0
 29 32  1  0  0  0  0
 30 23  1  0  0  0  0
 30 29  1  0  0  0  0
 30 33  1  0  0  0  0
 31 29  1  0  0  0  0
 34 30  1  0  0  0  0
 35 41  1  0  0  0  0
 35 38  1  0  0  0  0
 36 35  1  0  0  0  0
 36 40  1  0  0  0  0
 37 35  1  0  0  0  0
 39 36  1  0  0  0  0
 41 42  1  0  0  0  0
 43 41  1  0  0  0  0
 44 41  1  0  0  0  0
M  END
