
 OpenBabel09092615153D

 32 31  0  0  0  0  0  0  0  0999 V2000
   -0.0112    2.5252    0.0001 N   0  0  0  0  0  0  0  0  0  0  0  0
    0.6831    1.2000   -0.0092 C   0  0  0  0  0  0  0  0  0  0  0  0
   -0.2426   -0.0399    0.0032 C   0  0  0  0  0  0  0  0  0  0  0  0
    0.5845   -1.3327   -0.0079 C   0  0  0  0  0  0  0  0  0  0  0  0
    1.0277    3.5841   -0.0139 C   0  0  0  0  0  0  0  0  0  0  0  0
   -0.8329    2.6982    1.2219 C   0  0  0  0  0  0  0  0  0  0  0  0
   -0.8657    2.6981   -1.1990 C   0  0  0  0  0  0  0  0  0  0  0  0
   -0.3225   -2.5693    0.0042 C   0  0  0  0  0  0  0  0  0  0  0  0
    0.5063   -3.8589   -0.0069 C   0  0  0  0  0  0  0  0  0  0  0  0
   -0.3927   -5.0918    0.0051 C   0  0  0  0  0  0  0  0  0  0  0  0
    1.3544    1.1275    0.8779 H   0  0  0  0  0  0  0  0  0  0  0  0
    1.3302    1.1275   -0.9141 H   0  0  0  0  0  0  0  0  0  0  0  0
   -0.8723   -0.0421    0.9164 H   0  0  0  0  0  0  0  0  0  0  0  0
   -0.8966   -0.0420   -0.8927 H   0  0  0  0  0  0  0  0  0  0  0  0
    1.2443   -1.3544    0.8876 H   0  0  0  0  0  0  0  0  0  0  0  0
    1.2201   -1.3544   -0.9207 H   0  0  0  0  0  0  0  0  0  0  0  0
    0.5719    4.6001   -0.0078 H   0  0  0  0  0  0  0  0  0  0  0  0
    1.6669    3.5086   -0.9225 H   0  0  0  0  0  0  0  0  0  0  0  0
    1.6912    3.5087    0.8770 H   0  0  0  0  0  0  0  0  0  0  0  0
   -1.2712    3.7207    1.2671 H   0  0  0  0  0  0  0  0  0  0  0  0
   -0.2220    2.5468    2.1397 H   0  0  0  0  0  0  0  0  0  0  0  0
   -1.6874    1.9898    1.2472 H   0  0  0  0  0  0  0  0  0  0  0  0
   -1.3049    3.7206   -1.2324 H   0  0  0  0  0  0  0  0  0  0  0  0
   -1.7205    1.9898   -1.2011 H   0  0  0  0  0  0  0  0  0  0  0  0
   -0.2798    2.5467   -2.1329 H   0  0  0  0  0  0  0  0  0  0  0  0
   -0.9822   -2.5497   -0.8914 H   0  0  0  0  0  0  0  0  0  0  0  0
   -0.9580   -2.5497    0.9172 H   0  0  0  0  0  0  0  0  0  0  0  0
    1.1656   -3.8872    0.8880 H   0  0  0  0  0  0  0  0  0  0  0  0
    1.1415   -3.8872   -0.9191 H   0  0  0  0  0  0  0  0  0  0  0  0
   -1.0241   -5.1004    0.9191 H   0  0  0  0  0  0  0  0  0  0  0  0
    0.2331   -6.0090   -0.0033 H   0  0  0  0  0  0  0  0  0  0  0  0
   -1.0483   -5.1004   -0.8917 H   0  0  0  0  0  0  0  0  0  0  0  0
  1  6  1  0  0  0  0
  2  3  1  0  0  0  0
  2  1  1  0  0  0  0
  2 11  1  0  0  0  0
  3 13  1  0  0  0  0
  4  3  1  0  0  0  0
  4  8  1  0  0  0  0
  4 15  1  0  0  0  0
  5 17  1  0  0  0  0
  5  1  1  0  0  0  0
  5 19  1  0  0  0  0
  6 20  1  0  0  0  0
  6 21  1  0  0  0  0
  7 23  1  0  0  0  0
  7 24  1  0  0  0  0
  7  1  1  0  0  0  0
  8  9  1  0  0  0  0
  8 27  1  0  0  0  0
  9 28  1  0  0  0  0
 10 31  1  0  0  0  0
 10  9  1  0  0  0  0
 10 30  1  0  0  0  0
 12  2  1  0  0  0  0
 14  3  1  0  0  0  0
 16  4  1  0  0  0  0
 18  5  1  0  0  0  0
 22  6  1  0  0  0  0
 25  7  1  0  0  0  0
 26  8  1  0  0  0  0
 29  9  1  0  0  0  0
 32 10  1  0  0  0  0
M  END
