
 OpenBabel09152609073D

 38 37  0  0  0  0  0  0  0  0999 V2000
    0.0275   -3.6822    0.0007 N   0  0  0  0  0  0  0  0  0  0  0  0
   -0.6745   -2.3611    0.0070 C   0  0  0  0  0  0  0  0  0  0  0  0
    0.8779   -3.8501    1.2034 C   0  0  0  0  0  0  0  0  0  0  0  0
   -1.0053   -4.7471    0.0106 C   0  0  0  0  0  0  0  0  0  0  0  0
    0.8553   -3.8506   -1.2176 C   0  0  0  0  0  0  0  0  0  0  0  0
    1.3230   -4.8700    1.2387 H   0  0  0  0  0  0  0  0  0  0  0  0
    1.7287   -3.1368    1.2090 H   0  0  0  0  0  0  0  0  0  0  0  0
    0.2874   -3.7019    2.1349 H   0  0  0  0  0  0  0  0  0  0  0  0
    1.2996   -4.8705   -1.2609 H   0  0  0  0  0  0  0  0  0  0  0  0
    0.2473   -3.7028   -2.1379 H   0  0  0  0  0  0  0  0  0  0  0  0
    1.7057   -3.1373   -1.2395 H   0  0  0  0  0  0  0  0  0  0  0  0
   -0.5436   -5.7605    0.0065 H   0  0  0  0  0  0  0  0  0  0  0  0
   -1.6487   -4.6753    0.9165 H   0  0  0  0  0  0  0  0  0  0  0  0
   -1.6655   -4.6757   -0.8831 H   0  0  0  0  0  0  0  0  0  0  0  0
   -1.3425   -2.2925   -0.8829 H   0  0  0  0  0  0  0  0  0  0  0  0
   -1.3258   -2.2922    0.9092 H   0  0  0  0  0  0  0  0  0  0  0  0
    0.2440   -1.1159   -0.0017 C   0  0  0  0  0  0  0  0  0  0  0  0
   -0.5907    0.1720    0.0058 C   0  0  0  0  0  0  0  0  0  0  0  0
    0.8942   -1.1098    0.8969 H   0  0  0  0  0  0  0  0  0  0  0  0
    0.8775   -1.1101   -0.9123 H   0  0  0  0  0  0  0  0  0  0  0  0
    0.3093    1.4140   -0.0027 C   0  0  0  0  0  0  0  0  0  0  0  0
   -1.2468    0.1899   -0.8924 H   0  0  0  0  0  0  0  0  0  0  0  0
   -1.2301    0.1901    0.9160 H   0  0  0  0  0  0  0  0  0  0  0  0
   -0.5266    2.6994    0.0049 C   0  0  0  0  0  0  0  0  0  0  0  0
    0.9653    1.3979    0.8957 H   0  0  0  0  0  0  0  0  0  0  0  0
    0.9487    1.3977   -0.9129 H   0  0  0  0  0  0  0  0  0  0  0  0
    0.3731    3.9409   -0.0034 C   0  0  0  0  0  0  0  0  0  0  0  0
   -1.1826    2.7157   -0.8935 H   0  0  0  0  0  0  0  0  0  0  0  0
   -1.1659    2.7158    0.9152 H   0  0  0  0  0  0  0  0  0  0  0  0
   -0.4632    5.2257    0.0042 C   0  0  0  0  0  0  0  0  0  0  0  0
    1.0291    3.9249    0.8950 H   0  0  0  0  0  0  0  0  0  0  0  0
    1.0125    3.9248   -0.9137 H   0  0  0  0  0  0  0  0  0  0  0  0
    0.4287    6.4638   -0.0040 C   0  0  0  0  0  0  0  0  0  0  0  0
   -1.1189    5.2502   -0.8935 H   0  0  0  0  0  0  0  0  0  0  0  0
   -1.1024    5.2503    0.9137 H   0  0  0  0  0  0  0  0  0  0  0  0
   -0.2024    7.3773    0.0017 H   0  0  0  0  0  0  0  0  0  0  0  0
    1.0805    6.4761    0.8955 H   0  0  0  0  0  0  0  0  0  0  0  0
    1.0639    6.4761   -0.9154 H   0  0  0  0  0  0  0  0  0  0  0  0
  1  2  1  0  0  0  0
  1  4  1  0  0  0  0
  1  3  1  0  0  0  0
  2 16  1  0  0  0  0
  3  8  1  0  0  0  0
  4 13  1  0  0  0  0
  5 11  1  0  0  0  0
  5  1  1  0  0  0  0
  6  3  1  0  0  0  0
  7  3  1  0  0  0  0
  9  5  1  0  0  0  0
 10  5  1  0  0  0  0
 12  4  1  0  0  0  0
 14  4  1  0  0  0  0
 15  2  1  0  0  0  0
 17 18  1  0  0  0  0
 17  2  1  0  0  0  0
 17 19  1  0  0  0  0
 18 23  1  0  0  0  0
 20 17  1  0  0  0  0
 21 24  1  0  0  0  0
 21 18  1  0  0  0  0
 21 25  1  0  0  0  0
 22 18  1  0  0  0  0
 24 27  1  0  0  0  0
 24 29  1  0  0  0  0
 26 21  1  0  0  0  0
 27 30  1  0  0  0  0
 27 31  1  0  0  0  0
 28 24  1  0  0  0  0
 30 33  1  0  0  0  0
 30 35  1  0  0  0  0
 32 27  1  0  0  0  0
 33 36  1  0  0  0  0
 33 37  1  0  0  0  0
 34 30  1  0  0  0  0
 38 33  1  0  0  0  0
M  END
