
 OpenBabel09152609333D

 80 79  0  0  0  0  0  0  0  0999 V2000
   -2.6577   -4.6389    1.0845 C   0  0  0  0  0  0  0  0  0  0  0  0
   -1.5941   -5.5086    1.7456 C   0  0  0  0  0  0  0  0  0  0  0  0
   -0.6150   -6.2354    0.7978 C   0  0  0  0  0  0  0  0  0  0  0  0
    0.3167   -5.3468   -0.0498 C   0  0  0  0  0  0  0  0  0  0  0  0
   -0.3369   -4.8078   -1.3422 C   0  0  0  0  0  0  0  0  0  0  0  0
    0.6119   -4.0143   -2.2641 C   0  0  0  0  0  0  0  0  0  0  0  0
    0.8108   -2.5203   -1.9305 C   0  0  0  0  0  0  0  0  0  0  0  0
    1.5579   -2.2135   -0.6279 C   0  0  0  0  0  0  0  0  0  0  0  0
    1.8630   -0.3608   -0.4095 P   0  0  0  0  0  0  0  0  0  0  0  0
    0.0718    0.1280    0.0418 C   0  0  0  0  0  0  0  0  0  0  0  0
   -0.5802   -0.5848    1.2425 C   0  0  0  0  0  0  0  0  0  0  0  0
   -1.9439   -0.0204    1.7008 C   0  0  0  0  0  0  0  0  0  0  0  0
   -3.1263   -0.1388    0.7168 C   0  0  0  0  0  0  0  0  0  0  0  0
   -3.2079    0.9847   -0.3291 C   0  0  0  0  0  0  0  0  0  0  0  0
   -4.3116    0.8248   -1.3975 C   0  0  0  0  0  0  0  0  0  0  0  0
   -5.7803    0.8419   -0.9281 C   0  0  0  0  0  0  0  0  0  0  0  0
   -6.2984   -0.4819   -0.3569 C   0  0  0  0  0  0  0  0  0  0  0  0
    2.7179    0.3033    1.1521 C   0  0  0  0  0  0  0  0  0  0  0  0
    3.2143    1.7621    1.0876 C   0  0  0  0  0  0  0  0  0  0  0  0
    2.1111    2.7987    0.8571 C   0  0  0  0  0  0  0  0  0  0  0  0
    2.6728    4.2262    0.9093 C   0  0  0  0  0  0  0  0  0  0  0  0
    1.5557    5.2569    0.6830 C   0  0  0  0  0  0  0  0  0  0  0  0
    1.9649    6.7337    0.8594 C   0  0  0  0  0  0  0  0  0  0  0  0
    2.7735    7.4056   -0.2704 C   0  0  0  0  0  0  0  0  0  0  0  0
    4.2231    6.9546   -0.4288 C   0  0  0  0  0  0  0  0  0  0  0  0
    3.4626   -0.4064   -1.3934 C   0  0  0  0  0  0  0  0  0  0  0  0
   -3.3612   -4.2735    1.8623 H   0  0  0  0  0  0  0  0  0  0  0  0
   -2.2074   -3.7378    0.6301 H   0  0  0  0  0  0  0  0  0  0  0  0
   -3.2300   -5.2228    0.3332 H   0  0  0  0  0  0  0  0  0  0  0  0
   -2.1237   -6.2965    2.3246 H   0  0  0  0  0  0  0  0  0  0  0  0
   -1.0233   -4.8837    2.4666 H   0  0  0  0  0  0  0  0  0  0  0  0
    0.0426   -6.8260    1.4736 H   0  0  0  0  0  0  0  0  0  0  0  0
   -1.1490   -6.9621    0.1477 H   0  0  0  0  0  0  0  0  0  0  0  0
    1.1560   -5.9918   -0.3925 H   0  0  0  0  0  0  0  0  0  0  0  0
    0.7518   -4.5848    0.6121 H   0  0  0  0  0  0  0  0  0  0  0  0
   -1.2461   -4.2073   -1.1854 H   0  0  0  0  0  0  0  0  0  0  0  0
   -0.6470   -5.7135   -1.9095 H   0  0  0  0  0  0  0  0  0  0  0  0
    1.5839   -4.5417   -2.3766 H   0  0  0  0  0  0  0  0  0  0  0  0
    0.1276   -4.0099   -3.2661 H   0  0  0  0  0  0  0  0  0  0  0  0
    1.3934   -2.0854   -2.7691 H   0  0  0  0  0  0  0  0  0  0  0  0
   -0.1832   -2.0294   -1.9215 H   0  0  0  0  0  0  0  0  0  0  0  0
    0.9942   -2.5657    0.2371 H   0  0  0  0  0  0  0  0  0  0  0  0
    2.5285   -2.7528   -0.6215 H   0  0  0  0  0  0  0  0  0  0  0  0
   -0.5305   -0.0937   -0.8533 H   0  0  0  0  0  0  0  0  0  0  0  0
    0.0324    1.2154    0.2195 H   0  0  0  0  0  0  0  0  0  0  0  0
   -0.7289   -1.6579    1.0210 H   0  0  0  0  0  0  0  0  0  0  0  0
    0.0779   -0.5067    2.1255 H   0  0  0  0  0  0  0  0  0  0  0  0
   -2.2146   -0.6443    2.5824 H   0  0  0  0  0  0  0  0  0  0  0  0
   -1.8488    1.0266    2.0628 H   0  0  0  0  0  0  0  0  0  0  0  0
   -4.0289   -0.0219    1.3433 H   0  0  0  0  0  0  0  0  0  0  0  0
   -3.1263   -1.1481    0.2512 H   0  0  0  0  0  0  0  0  0  0  0  0
   -2.2701    1.0577   -0.8972 H   0  0  0  0  0  0  0  0  0  0  0  0
   -3.3398    1.9552    0.1979 H   0  0  0  0  0  0  0  0  0  0  0  0
   -4.1911    1.7105   -2.0604 H   0  0  0  0  0  0  0  0  0  0  0  0
   -4.1278   -0.0762   -2.0226 H   0  0  0  0  0  0  0  0  0  0  0  0
   -6.4008    1.0264   -1.8328 H   0  0  0  0  0  0  0  0  0  0  0  0
   -5.9529    1.6839   -0.2240 H   0  0  0  0  0  0  0  0  0  0  0  0
   -7.3848   -0.3832   -0.1488 H   0  0  0  0  0  0  0  0  0  0  0  0
   -5.8208   -0.7813    0.5873 H   0  0  0  0  0  0  0  0  0  0  0  0
   -6.1598   -1.2961   -1.0996 H   0  0  0  0  0  0  0  0  0  0  0  0
    3.6118   -0.3291    1.3381 H   0  0  0  0  0  0  0  0  0  0  0  0
    2.0746    0.1832    2.0390 H   0  0  0  0  0  0  0  0  0  0  0  0
    3.7072    1.9804    2.0606 H   0  0  0  0  0  0  0  0  0  0  0  0
    3.9855    1.8728    0.2998 H   0  0  0  0  0  0  0  0  0  0  0  0
    1.6657    2.6394   -0.1470 H   0  0  0  0  0  0  0  0  0  0  0  0
    1.3322    2.6831    1.6428 H   0  0  0  0  0  0  0  0  0  0  0  0
    3.4516    4.3040    0.1371 H   0  0  0  0  0  0  0  0  0  0  0  0
    3.1313    4.4007    1.9074 H   0  0  0  0  0  0  0  0  0  0  0  0
    1.0749    5.1129   -0.3090 H   0  0  0  0  0  0  0  0  0  0  0  0
    0.7877    5.0577    1.4637 H   0  0  0  0  0  0  0  0  0  0  0  0
    1.0084    7.3010    0.8980 H   0  0  0  0  0  0  0  0  0  0  0  0
    2.4685    6.8783    1.8399 H   0  0  0  0  0  0  0  0  0  0  0  0
    2.8131    8.4892   -0.0221 H   0  0  0  0  0  0  0  0  0  0  0  0
    2.2388    7.3007   -1.2390 H   0  0  0  0  0  0  0  0  0  0  0  0
    4.7232    7.6106   -1.1725 H   0  0  0  0  0  0  0  0  0  0  0  0
    4.3007    5.9320   -0.8289 H   0  0  0  0  0  0  0  0  0  0  0  0
    4.7653    7.0395    0.5366 H   0  0  0  0  0  0  0  0  0  0  0  0
    3.2704   -0.7906   -2.4146 H   0  0  0  0  0  0  0  0  0  0  0  0
    3.8815    0.6109   -1.5071 H   0  0  0  0  0  0  0  0  0  0  0  0
    4.2125   -1.0591   -0.9000 H   0  0  0  0  0  0  0  0  0  0  0  0
  1 27  1  0  0  0  0
  1  2  1  0  0  0  0
  2 31  1  0  0  0  0
  2 30  1  0  0  0  0
  3  2  1  0  0  0  0
  3 32  1  0  0  0  0
  4 35  1  0  0  0  0
  4  3  1  0  0  0  0
  5 36  1  0  0  0  0
  5  4  1  0  0  0  0
  6  7  1  0  0  0  0
  6 38  1  0  0  0  0
  6  5  1  0  0  0  0
  7  8  1  0  0  0  0
  8 43  1  0  0  0  0
  8 42  1  0  0  0  0
  9  8  1  0  0  0  0
  9 18  1  0  0  0  0
 10  9  1  0  0  0  0
 10 11  1  0  0  0  0
 11 47  1  0  0  0  0
 11 12  1  0  0  0  0
 12 49  1  0  0  0  0
 12 48  1  0  0  0  0
 13 12  1  0  0  0  0
 13 50  1  0  0  0  0
 14 53  1  0  0  0  0
 14 13  1  0  0  0  0
 15 14  1  0  0  0  0
 15 16  1  0  0  0  0
 16 57  1  0  0  0  0
 16 17  1  0  0  0  0
 17 59  1  0  0  0  0
 17 58  1  0  0  0  0
 18 19  1  0  0  0  0
 18 61  1  0  0  0  0
 18 62  1  0  0  0  0
 19 63  1  0  0  0  0
 20 21  1  0  0  0  0
 20 19  1  0  0  0  0
 20 66  1  0  0  0  0
 21 68  1  0  0  0  0
 22 23  1  0  0  0  0
 22 21  1  0  0  0  0
 22 70  1  0  0  0  0
 23 72  1  0  0  0  0
 24 25  1  0  0  0  0
 24 23  1  0  0  0  0
 25 76  1  0  0  0  0
 25 77  1  0  0  0  0
 26 80  1  0  0  0  0
 26  9  1  0  0  0  0
 28  1  1  0  0  0  0
 29  1  1  0  0  0  0
 33  3  1  0  0  0  0
 34  4  1  0  0  0  0
 37  5  1  0  0  0  0
 39  6  1  0  0  0  0
 40  7  1  0  0  0  0
 41  7  1  0  0  0  0
 44 10  1  0  0  0  0
 45 10  1  0  0  0  0
 46 11  1  0  0  0  0
 51 13  1  0  0  0  0
 52 14  1  0  0  0  0
 54 15  1  0  0  0  0
 55 15  1  0  0  0  0
 56 16  1  0  0  0  0
 60 17  1  0  0  0  0
 64 19  1  0  0  0  0
 65 20  1  0  0  0  0
 67 21  1  0  0  0  0
 69 22  1  0  0  0  0
 71 23  1  0  0  0  0
 73 24  1  0  0  0  0
 74 24  1  0  0  0  0
 75 25  1  0  0  0  0
 78 26  1  0  0  0  0
 79 26  1  0  0  0  0
M  END
