
 OpenBabel09232613523D

 24 24  0  0  0  0  0  0  0  0999 V2000
    6.9505    4.2391   -0.1674 C   0  0  0  0  0  0  0  0  0  0  0  0
    6.8251    3.2006   -1.2948 C   0  0  0  0  0  0  0  0  0  0  0  0
    6.0484    1.9860   -0.8470 C   0  0  0  0  0  0  0  0  0  0  0  0
    7.7137    5.4732   -0.5838 C   0  0  0  0  0  0  0  0  0  0  0  0
    6.5339    1.1701    0.1902 C   0  0  0  0  0  0  0  0  0  0  0  0
    4.8334    1.6503   -1.4690 C   0  0  0  0  0  0  0  0  0  0  0  0
    7.9142    6.5819    0.4037 C   0  0  0  0  0  0  0  0  0  0  0  0
    8.1709    5.5825   -1.7127 O   0  0  0  0  0  0  0  0  0  0  0  0
    5.8142    0.0438    0.6002 C   0  0  0  0  0  0  0  0  0  0  0  0
    4.1155    0.5235   -1.0569 C   0  0  0  0  0  0  0  0  0  0  0  0
    4.6040   -0.2836   -0.0195 C   0  0  0  0  0  0  0  0  0  0  0  0
    3.9222   -1.3732    0.3878 O   0  0  0  0  0  0  0  0  0  0  0  0
    5.9314    4.5473    0.1526 H   0  0  0  0  0  0  0  0  0  0  0  0
    7.4743    3.7882    0.7019 H   0  0  0  0  0  0  0  0  0  0  0  0
    7.8347    2.8764   -1.6292 H   0  0  0  0  0  0  0  0  0  0  0  0
    6.3140    3.6823   -2.1578 H   0  0  0  0  0  0  0  0  0  0  0  0
    7.4706    1.4027    0.6804 H   0  0  0  0  0  0  0  0  0  0  0  0
    4.4387    2.2601   -2.2722 H   0  0  0  0  0  0  0  0  0  0  0  0
    8.4713    6.2007    1.2849 H   0  0  0  0  0  0  0  0  0  0  0  0
    8.4916    7.4151   -0.0512 H   0  0  0  0  0  0  0  0  0  0  0  0
    6.9282    6.9697    0.7347 H   0  0  0  0  0  0  0  0  0  0  0  0
    6.1990   -0.5759    1.4004 H   0  0  0  0  0  0  0  0  0  0  0  0
    3.1803    0.2791   -1.5449 H   0  0  0  0  0  0  0  0  0  0  0  0
    3.0818   -1.6346   -0.0148 H   0  0  0  0  0  0  0  0  0  0  0  0
  1  2  1  0  0  0  0
  1  4  1  0  0  0  0
  1 13  1  0  0  0  0
  1 14  1  0  0  0  0
  2  3  1  0  0  0  0
  2 15  1  0  0  0  0
  2 16  1  0  0  0  0
  3  5  1  0  0  0  0
  3  6  2  0  0  0  0
  4  7  1  0  0  0  0
  4  8  2  0  0  0  0
  5  9  2  0  0  0  0
  5 17  1  0  0  0  0
  6 18  1  0  0  0  0
  7 19  1  0  0  0  0
  7 20  1  0  0  0  0
  7 21  1  0  0  0  0
  9 11  1  0  0  0  0
  9 22  1  0  0  0  0
 10  6  1  0  0  0  0
 10 23  1  0  0  0  0
 11 12  1  0  0  0  0
 11 10  2  0  0  0  0
 12 24  1  0  0  0  0
M  END
