
 OpenBabel09242609313D

 26 27  0  0  1  0  0  0  0  0999 V2000
    0.4626    0.1750    0.1112 C   0  0  1  0  0  0  0  0  0  0  0  0
   -0.7504    0.7561   -0.6041 C   0  0  2  0  0  0  0  0  0  0  0  0
   -0.0095    1.5735    0.4725 C   0  0  0  0  0  0  0  0  0  0  0  0
   -0.0147   -0.9536    1.0372 C   0  0  0  0  0  0  0  0  0  0  0  0
    1.8810    0.1866   -0.5103 C   0  0  0  0  0  0  0  0  0  0  0  0
   -1.8706   -0.0857   -0.0745 C   0  0  0  0  0  0  0  0  0  0  0  0
   -1.4818   -0.9894    0.8169 C   0  0  0  0  0  0  0  0  0  0  0  0
    2.9490    0.1869    0.5888 C   0  0  0  0  0  0  0  0  0  0  0  0
    2.0777   -1.0074   -1.4522 C   0  0  0  0  0  0  0  0  0  0  0  0
   -3.2914    0.0950   -0.5138 C   0  0  0  0  0  0  0  0  0  0  0  0
   -0.4991    0.7041   -1.6846 H   0  0  0  0  0  0  0  0  0  0  0  0
    0.3980    2.4590   -0.0596 H   0  0  0  0  0  0  0  0  0  0  0  0
   -0.6813    1.7140    1.3477 H   0  0  0  0  0  0  0  0  0  0  0  0
    0.2519   -0.7501    2.0959 H   0  0  0  0  0  0  0  0  0  0  0  0
    0.3938   -1.9360    0.7267 H   0  0  0  0  0  0  0  0  0  0  0  0
    2.0156    1.1075   -1.1216 H   0  0  0  0  0  0  0  0  0  0  0  0
   -2.1500   -1.6844    1.3095 H   0  0  0  0  0  0  0  0  0  0  0  0
    2.8738   -0.7293    1.2129 H   0  0  0  0  0  0  0  0  0  0  0  0
    3.9635    0.2275    0.1379 H   0  0  0  0  0  0  0  0  0  0  0  0
    2.8238    1.0763    1.2424 H   0  0  0  0  0  0  0  0  0  0  0  0
    1.9990   -1.9715   -0.9087 H   0  0  0  0  0  0  0  0  0  0  0  0
    3.0820   -0.9576   -1.9244 H   0  0  0  0  0  0  0  0  0  0  0  0
    1.3151   -0.9874   -2.2594 H   0  0  0  0  0  0  0  0  0  0  0  0
   -3.6221    1.1275   -0.2764 H   0  0  0  0  0  0  0  0  0  0  0  0
   -3.9671   -0.6232   -0.0019 H   0  0  0  0  0  0  0  0  0  0  0  0
   -3.3623   -0.0672   -1.6094 H   0  0  0  0  0  0  0  0  0  0  0  0
  1  2  1  6  0  0  0
  1  3  1  0  0  0  0
  1  4  1  0  0  0  0
  1  5  1  0  0  0  0
  2  3  1  0  0  0  0
  2  6  1  0  0  0  0
  2 11  1  6  0  0  0
  3 12  1  0  0  0  0
  3 13  1  0  0  0  0
  4  7  1  0  0  0  0
  4 14  1  0  0  0  0
  4 15  1  0  0  0  0
  5  8  1  0  0  0  0
  5  9  1  0  0  0  0
  5 16  1  0  0  0  0
  6  7  2  0  0  0  0
  6 10  1  0  0  0  0
  7 17  1  0  0  0  0
  8 18  1  0  0  0  0
  8 19  1  0  0  0  0
  8 20  1  0  0  0  0
  9 21  1  0  0  0  0
  9 22  1  0  0  0  0
  9 23  1  0  0  0  0
 10 24  1  0  0  0  0
 10 25  1  0  0  0  0
 10 26  1  0  0  0  0
M  END
