
 OpenBabel09242610223D

 27 27  0  0  1  0  0  0  0  0999 V2000
    3.8365    0.2706   -0.1938 O   0  0  0  0  0  0  0  0  0  0  0  0
   -0.8984   -0.6585   -0.0306 C   0  0  0  0  0  0  0  0  0  0  0  0
    0.4579   -0.0374    0.3883 C   0  0  2  0  0  0  0  0  0  0  0  0
    0.3795    1.4065   -0.1082 C   0  0  0  0  0  0  0  0  0  0  0  0
   -1.7914    0.5563    0.0491 C   0  0  0  0  0  0  0  0  0  0  0  0
   -1.0799    1.6852    0.0175 C   0  0  0  0  0  0  0  0  0  0  0  0
    1.7362   -0.8028    0.0011 C   0  0  0  0  0  0  0  0  0  0  0  0
   -0.9167   -1.1962   -1.4778 C   0  0  0  0  0  0  0  0  0  0  0  0
   -1.3162   -1.7747    0.9469 C   0  0  0  0  0  0  0  0  0  0  0  0
   -3.2946    0.5252    0.0458 C   0  0  0  0  0  0  0  0  0  0  0  0
    2.9580   -0.1291    0.5534 C   0  0  0  0  0  0  0  0  0  0  0  0
    0.4247    0.0482    1.5027 H   0  0  0  0  0  0  0  0  0  0  0  0
    0.6520    1.5156   -1.1803 H   0  0  0  0  0  0  0  0  0  0  0  0
    1.0160    2.0632    0.5231 H   0  0  0  0  0  0  0  0  0  0  0  0
   -1.5188    2.6736   -0.0289 H   0  0  0  0  0  0  0  0  0  0  0  0
    1.6919   -1.8315    0.4160 H   0  0  0  0  0  0  0  0  0  0  0  0
    1.8160   -0.8698   -1.1055 H   0  0  0  0  0  0  0  0  0  0  0  0
   -1.9351   -1.5453   -1.7518 H   0  0  0  0  0  0  0  0  0  0  0  0
   -0.6127   -0.4097   -2.2014 H   0  0  0  0  0  0  0  0  0  0  0  0
   -0.2250   -2.0583   -1.5849 H   0  0  0  0  0  0  0  0  0  0  0  0
   -2.3222   -2.1660    0.6843 H   0  0  0  0  0  0  0  0  0  0  0  0
   -0.5954   -2.6185    0.9055 H   0  0  0  0  0  0  0  0  0  0  0  0
   -1.3572   -1.3955    1.9906 H   0  0  0  0  0  0  0  0  0  0  0  0
   -3.7174    1.5523    0.0624 H   0  0  0  0  0  0  0  0  0  0  0  0
   -3.6589   -0.0183    0.9418 H   0  0  0  0  0  0  0  0  0  0  0  0
   -3.6576    0.0087   -0.8664 H   0  0  0  0  0  0  0  0  0  0  0  0
    3.0648    0.0040    1.6251 H   0  0  0  0  0  0  0  0  0  0  0  0
  1 11  2  0  0  0  0
  2  3  1  0  0  0  0
  2  5  1  0  0  0  0
  2  8  1  0  0  0  0
  2  9  1  0  0  0  0
  3  4  1  0  0  0  0
  3  7  1  0  0  0  0
  3 12  1  1  0  0  0
  4  6  1  0  0  0  0
  4 13  1  0  0  0  0
  4 14  1  0  0  0  0
  5  6  2  0  0  0  0
  5 10  1  0  0  0  0
  6 15  1  0  0  0  0
  7 11  1  0  0  0  0
  7 16  1  0  0  0  0
  7 17  1  0  0  0  0
  8 18  1  0  0  0  0
  8 19  1  0  0  0  0
  8 20  1  0  0  0  0
  9 21  1  0  0  0  0
  9 22  1  0  0  0  0
  9 23  1  0  0  0  0
 10 24  1  0  0  0  0
 10 25  1  0  0  0  0
 10 26  1  0  0  0  0
 11 27  1  0  0  0  0
M  END
