
 OpenBabel09232614003D

 29 29  0  0  0  0  0  0  0  0999 V2000
    0.7953    2.7137    0.2917 C   0  0  0  0  0  0  0  0  0  0  0  0
    0.5580    1.7583   -0.8478 C   0  0  0  0  0  0  0  0  0  0  0  0
    1.5632    0.5850   -0.7924 C   0  0  0  0  0  0  0  0  0  0  0  0
    3.0150    1.0301   -0.3715 C   0  0  2  0  0  0  0  0  0  0  0  0
    3.1529    2.5789   -0.4051 C   0  0  0  0  0  0  0  0  0  0  0  0
    2.0607    3.1358    0.4843 C   0  0  0  0  0  0  0  0  0  0  0  0
   -0.3349    3.1481    1.1797 C   0  0  0  0  0  0  0  0  0  0  0  0
    4.1384    0.2255   -1.1078 C   0  0  0  0  0  0  0  0  0  0  0  0
    5.5136    0.5098   -0.4624 C   0  0  0  0  0  0  0  0  0  0  0  0
    4.2063    0.5816   -2.6124 C   0  0  0  0  0  0  0  0  0  0  0  0
    3.8474   -1.1458   -0.9583 O   0  0  0  0  0  0  0  0  0  0  0  0
   -0.4913    1.3988   -0.9137 H   0  0  0  0  0  0  0  0  0  0  0  0
    0.7655    2.3308   -1.7790 H   0  0  0  0  0  0  0  0  0  0  0  0
    1.5273    0.1094   -1.7925 H   0  0  0  0  0  0  0  0  0  0  0  0
    1.2264   -0.1879   -0.0670 H   0  0  0  0  0  0  0  0  0  0  0  0
    3.0995    0.7746    0.7118 H   0  0  0  0  0  0  0  0  0  0  0  0
    3.0225    2.9522   -1.4428 H   0  0  0  0  0  0  0  0  0  0  0  0
    4.1317    2.9314   -0.0234 H   0  0  0  0  0  0  0  0  0  0  0  0
    2.3123    3.8036    1.3031 H   0  0  0  0  0  0  0  0  0  0  0  0
   -1.1066    3.6624    0.5700 H   0  0  0  0  0  0  0  0  0  0  0  0
   -0.7877    2.2575    1.6633 H   0  0  0  0  0  0  0  0  0  0  0  0
    0.0111    3.8443    1.9734 H   0  0  0  0  0  0  0  0  0  0  0  0
    5.8116    1.5716   -0.5765 H   0  0  0  0  0  0  0  0  0  0  0  0
    5.4947    0.2550    0.6188 H   0  0  0  0  0  0  0  0  0  0  0  0
    6.3029   -0.1057   -0.9453 H   0  0  0  0  0  0  0  0  0  0  0  0
    4.4517    1.6541   -2.7579 H   0  0  0  0  0  0  0  0  0  0  0  0
    5.0001   -0.0132   -3.1131 H   0  0  0  0  0  0  0  0  0  0  0  0
    3.2541    0.3649   -3.1347 H   0  0  0  0  0  0  0  0  0  0  0  0
    4.5467   -1.6689   -1.4317 H   0  0  0  0  0  0  0  0  0  0  0  0
  1  7  1  0  0  0  0
  1  6  2  0  0  0  0
  2  1  1  0  0  0  0
  2 12  1  0  0  0  0
  2 13  1  0  0  0  0
  3  2  1  0  0  0  0
  3 14  1  0  0  0  0
  3 15  1  0  0  0  0
  4  8  1  0  0  0  0
  4  3  1  0  0  0  0
  4 16  1  1  0  0  0
  5  4  1  0  0  0  0
  5 17  1  0  0  0  0
  5 18  1  0  0  0  0
  6  5  1  0  0  0  0
  6 19  1  0  0  0  0
  7 20  1  0  0  0  0
  7 21  1  0  0  0  0
  7 22  1  0  0  0  0
  8  9  1  0  0  0  0
  8 10  1  0  0  0  0
  8 11  1  0  0  0  0
  9 23  1  0  0  0  0
  9 24  1  0  0  0  0
  9 25  1  0  0  0  0
 10 26  1  0  0  0  0
 10 27  1  0  0  0  0
 10 28  1  0  0  0  0
 11 29  1  0  0  0  0
M  END
