
 OpenBabel09242609423D

 26 27  0  0  1  0  0  0  0  0999 V2000
   -1.6791   -0.1364    0.3041 C   0  0  0  0  0  0  0  0  0  0  0  0
   -0.6417   -1.2776    0.1117 C   0  0  2  0  0  0  0  0  0  0  0  0
   -1.0848    0.0189    1.7226 C   0  0  1  0  0  0  0  0  0  0  0  0
   -0.6565   -1.4666    1.6459 C   0  0  0  0  0  0  0  0  0  0  0  0
    0.7516   -0.7070   -0.2937 C   0  0  0  0  0  0  0  0  0  0  0  0
    0.2116    0.8221    1.6758 C   0  0  0  0  0  0  0  0  0  0  0  0
    1.2668    0.4135    0.6595 C   0  0  0  0  0  0  0  0  0  0  0  0
   -1.6610    1.0870   -0.6462 C   0  0  0  0  0  0  0  0  0  0  0  0
   -3.1369   -0.6777    0.3360 C   0  0  0  0  0  0  0  0  0  0  0  0
    0.4427    1.8222    2.5354 C   0  0  0  0  0  0  0  0  0  0  0  0
   -0.9229   -2.1287   -0.5456 H   0  0  0  0  0  0  0  0  0  0  0  0
   -1.7616    0.3442    2.5433 H   0  0  0  0  0  0  0  0  0  0  0  0
    0.2697   -1.8017    2.1641 H   0  0  0  0  0  0  0  0  0  0  0  0
   -1.4951   -2.1274    1.9479 H   0  0  0  0  0  0  0  0  0  0  0  0
    0.6615   -0.3090   -1.3274 H   0  0  0  0  0  0  0  0  0  0  0  0
    1.5091   -1.5191   -0.3368 H   0  0  0  0  0  0  0  0  0  0  0  0
    1.6076    1.2797    0.0519 H   0  0  0  0  0  0  0  0  0  0  0  0
    2.1413    0.0386    1.2347 H   0  0  0  0  0  0  0  0  0  0  0  0
   -0.6718    1.5722   -0.7335 H   0  0  0  0  0  0  0  0  0  0  0  0
   -1.9718    0.7774   -1.6666 H   0  0  0  0  0  0  0  0  0  0  0  0
   -2.3677    1.8606   -0.2773 H   0  0  0  0  0  0  0  0  0  0  0  0
   -3.8254    0.1170    0.6951 H   0  0  0  0  0  0  0  0  0  0  0  0
   -3.4489   -0.9740   -0.6883 H   0  0  0  0  0  0  0  0  0  0  0  0
   -3.2954   -1.5581    0.9870 H   0  0  0  0  0  0  0  0  0  0  0  0
   -0.2985    2.1037    3.2768 H   0  0  0  0  0  0  0  0  0  0  0  0
    1.3787    2.3715    2.5053 H   0  0  0  0  0  0  0  0  0  0  0  0
  1  2  1  0  0  0  0
  1  3  1  0  0  0  0
  1  8  1  0  0  0  0
  1  9  1  0  0  0  0
  2  4  1  0  0  0  0
  2  5  1  0  0  0  0
  2 11  1  6  0  0  0
  3  4  1  0  0  0  0
  3  6  1  0  0  0  0
  3 12  1  1  0  0  0
  4 13  1  0  0  0  0
  4 14  1  0  0  0  0
  5  7  1  0  0  0  0
  5 15  1  0  0  0  0
  5 16  1  0  0  0  0
  6  7  1  0  0  0  0
  6 10  2  0  0  0  0
  7 17  1  0  0  0  0
  7 18  1  0  0  0  0
  8 19  1  0  0  0  0
  8 20  1  0  0  0  0
  8 21  1  0  0  0  0
  9 22  1  0  0  0  0
  9 23  1  0  0  0  0
  9 24  1  0  0  0  0
 10 25  1  0  0  0  0
 10 26  1  0  0  0  0
M  END
