
 OpenBabel09232611423D

 20 21  0  0  1  0  0  0  0  0999 V2000
   -2.5095   -0.9623    0.0883 O   0  0  0  0  0  0  0  0  0  0  0  0
    2.5094   -0.9624   -0.0882 O   0  0  0  0  0  0  0  0  0  0  0  0
   -0.7848    0.2341   -1.0717 C   0  0  1  0  0  0  0  0  0  0  0  0
    0.7848    0.2342    1.0717 C   0  0  1  0  0  0  0  0  0  0  0  0
   -0.4797    1.6855   -0.6171 C   0  0  0  0  0  0  0  0  0  0  0  0
    0.4798    1.6856    0.6169 C   0  0  0  0  0  0  0  0  0  0  0  0
    0.5519   -0.4874   -1.3869 C   0  0  0  0  0  0  0  0  0  0  0  0
   -0.5519   -0.4872    1.3869 C   0  0  0  0  0  0  0  0  0  0  0  0
   -1.3981   -0.4586    0.1286 C   0  0  0  0  0  0  0  0  0  0  0  0
    1.3981   -0.4587   -0.1286 C   0  0  0  0  0  0  0  0  0  0  0  0
   -1.4658    0.2233   -1.9504 H   0  0  0  0  0  0  0  0  0  0  0  0
    1.4658    0.2235    1.9503 H   0  0  0  0  0  0  0  0  0  0  0  0
   -1.4377    2.1797   -0.3414 H   0  0  0  0  0  0  0  0  0  0  0  0
   -0.0307    2.2737   -1.4467 H   0  0  0  0  0  0  0  0  0  0  0  0
    1.4378    2.1797    0.3411 H   0  0  0  0  0  0  0  0  0  0  0  0
    0.0307    2.2739    1.4464 H   0  0  0  0  0  0  0  0  0  0  0  0
    1.0821    0.0268   -2.2171 H   0  0  0  0  0  0  0  0  0  0  0  0
    0.3571   -1.5414   -1.6812 H   0  0  0  0  0  0  0  0  0  0  0  0
   -1.0821    0.0271    2.2171 H   0  0  0  0  0  0  0  0  0  0  0  0
   -0.3572   -1.5411    1.6815 H   0  0  0  0  0  0  0  0  0  0  0  0
  1  9  2  0  0  0  0
  2 10  2  0  0  0  0
  3  5  1  0  0  0  0
  3  7  1  0  0  0  0
  3  9  1  0  0  0  0
  3 11  1  6  0  0  0
  4  6  1  0  0  0  0
  4  8  1  0  0  0  0
  4 10  1  0  0  0  0
  4 12  1  1  0  0  0
  5  6  1  0  0  0  0
  5 13  1  0  0  0  0
  5 14  1  0  0  0  0
  6 15  1  0  0  0  0
  6 16  1  0  0  0  0
  7 10  1  0  0  0  0
  7 17  1  0  0  0  0
  7 18  1  0  0  0  0
  8  9  1  0  0  0  0
  8 19  1  0  0  0  0
  8 20  1  0  0  0  0
M  END
