
 OpenBabel09232611433D

 22 23  0  0  1  0  0  0  0  0999 V2000
    2.8656    0.4678    1.1168 O   0  0  0  0  0  0  0  0  0  0  0  0
    2.6081   -0.4629   -0.8886 O   0  0  0  0  0  0  0  0  0  0  0  0
   -0.2997   -0.8472   -0.7211 C   0  0  1  0  0  0  0  0  0  0  0  0
   -0.1076    0.6718   -0.6519 C   0  0  2  0  0  0  0  0  0  0  0  0
    0.6015   -0.1703    0.3751 C   0  0  2  0  0  0  0  0  0  0  0  0
   -1.4728   -1.5082    0.0374 C   0  0  0  0  0  0  0  0  0  0  0  0
   -1.3779    1.4691   -0.2801 C   0  0  0  0  0  0  0  0  0  0  0  0
   -2.7078   -0.6053    0.1162 C   0  0  0  0  0  0  0  0  0  0  0  0
   -2.3419    0.7613    0.6852 C   0  0  0  0  0  0  0  0  0  0  0  0
    2.0932   -0.0662    0.1479 C   0  0  0  0  0  0  0  0  0  0  0  0
    0.4208   -1.5625   -1.1690 H   0  0  0  0  0  0  0  0  0  0  0  0
    0.4885    1.0421   -1.5152 H   0  0  0  0  0  0  0  0  0  0  0  0
    0.2424    0.1914    1.3597 H   0  0  0  0  0  0  0  0  0  0  0  0
   -1.1588   -1.8228    1.0586 H   0  0  0  0  0  0  0  0  0  0  0  0
   -1.7719   -2.4334   -0.4999 H   0  0  0  0  0  0  0  0  0  0  0  0
   -1.9256    1.6583   -1.2291 H   0  0  0  0  0  0  0  0  0  0  0  0
   -1.0841    2.4551    0.1374 H   0  0  0  0  0  0  0  0  0  0  0  0
   -3.4769   -1.0969    0.7501 H   0  0  0  0  0  0  0  0  0  0  0  0
   -3.1374   -0.4670   -0.9010 H   0  0  0  0  0  0  0  0  0  0  0  0
   -3.2584    1.3814    0.7885 H   0  0  0  0  0  0  0  0  0  0  0  0
   -1.9017    0.6461    1.6977 H   0  0  0  0  0  0  0  0  0  0  0  0
    3.8241    0.5495    1.0114 H   0  0  0  0  0  0  0  0  0  0  0  0
  1 10  1  0  0  0  0
  1 22  1  0  0  0  0
  2 10  2  0  0  0  0
  3  4  1  6  0  0  0
  3  6  1  0  0  0  0
  3 11  1  0  0  0  0
  4  5  1  1  0  0  0
  4  7  1  0  0  0  0
  4 12  1  0  0  0  0
  5  3  1  6  0  0  0
  5 10  1  0  0  0  0
  5 13  1  0  0  0  0
  6  8  1  0  0  0  0
  6 14  1  0  0  0  0
  6 15  1  0  0  0  0
  7  9  1  0  0  0  0
  7 16  1  0  0  0  0
  7 17  1  0  0  0  0
  8  9  1  0  0  0  0
  8 18  1  0  0  0  0
  8 19  1  0  0  0  0
  9 20  1  0  0  0  0
  9 21  1  0  0  0  0
M  END
