
 OpenBabel09232611443D

 29 30  0  0  1  0  0  0  0  0999 V2000
   -2.5779   -0.3379   -0.1505 O   0  0  0  0  0  0  0  0  0  0  0  0
   -0.1730   -0.6834    0.3324 C   0  0  2  0  0  0  0  0  0  0  0  0
    1.0970   -0.0242   -0.2747 C   0  0  0  0  0  0  0  0  0  0  0  0
    0.4163    1.3641   -0.2995 C   0  0  1  0  0  0  0  0  0  0  0  0
   -1.2830   -0.3067   -0.6937 C   0  0  2  0  0  0  0  0  0  0  0  0
   -0.4185    0.1565    1.6132 C   0  0  0  0  0  0  0  0  0  0  0  0
   -0.8770    1.1183   -1.1118 C   0  0  0  0  0  0  0  0  0  0  0  0
   -0.0283    1.5739    1.1664 C   0  0  0  0  0  0  0  0  0  0  0  0
   -0.1129   -2.1895    0.6191 C   0  0  0  0  0  0  0  0  0  0  0  0
    1.5306   -0.5582   -1.6747 C   0  0  0  0  0  0  0  0  0  0  0  0
    2.3829   -0.0956    0.6058 C   0  0  0  0  0  0  0  0  0  0  0  0
    0.9913    2.2319   -0.6880 H   0  0  0  0  0  0  0  0  0  0  0  0
   -1.2458   -0.9574   -1.5976 H   0  0  0  0  0  0  0  0  0  0  0  0
    0.2636   -0.1665    2.4287 H   0  0  0  0  0  0  0  0  0  0  0  0
   -1.4501    0.0788    2.0179 H   0  0  0  0  0  0  0  0  0  0  0  0
   -1.6536    1.8939   -0.9314 H   0  0  0  0  0  0  0  0  0  0  0  0
   -0.6516    1.1323   -2.1997 H   0  0  0  0  0  0  0  0  0  0  0  0
   -0.8480    2.3189    1.2627 H   0  0  0  0  0  0  0  0  0  0  0  0
    0.8211    1.9349    1.7847 H   0  0  0  0  0  0  0  0  0  0  0  0
    0.7035   -2.4151    1.3366 H   0  0  0  0  0  0  0  0  0  0  0  0
   -1.0709   -2.5373    1.0594 H   0  0  0  0  0  0  0  0  0  0  0  0
    0.0730   -2.7549   -0.3179 H   0  0  0  0  0  0  0  0  0  0  0  0
    2.3504    0.0720   -2.0812 H   0  0  0  0  0  0  0  0  0  0  0  0
    1.9057   -1.6000   -1.5857 H   0  0  0  0  0  0  0  0  0  0  0  0
    0.7395   -0.5735   -2.4445 H   0  0  0  0  0  0  0  0  0  0  0  0
    3.1851    0.5251    0.1522 H   0  0  0  0  0  0  0  0  0  0  0  0
    2.2679    0.2576    1.6455 H   0  0  0  0  0  0  0  0  0  0  0  0
    2.7472   -1.1433    0.6649 H   0  0  0  0  0  0  0  0  0  0  0  0
   -2.8396   -1.2933   -0.0962 H   0  0  0  0  0  0  0  0  0  0  0  0
  1  5  1  0  0  0  0
  1 29  1  0  0  0  0
  2  3  1  0  0  0  0
  2  5  1  6  0  0  0
  2  6  1  0  0  0  0
  2  9  1  0  0  0  0
  3  4  1  0  0  0  0
  3 10  1  0  0  0  0
  3 11  1  0  0  0  0
  4  7  1  0  0  0  0
  4  8  1  0  0  0  0
  4 12  1  6  0  0  0
  5  7  1  0  0  0  0
  5 13  1  6  0  0  0
  6  8  1  0  0  0  0
  6 14  1  0  0  0  0
  6 15  1  0  0  0  0
  7 16  1  0  0  0  0
  7 17  1  0  0  0  0
  8 18  1  0  0  0  0
  8 19  1  0  0  0  0
  9 20  1  0  0  0  0
  9 21  1  0  0  0  0
  9 22  1  0  0  0  0
 10 23  1  0  0  0  0
 10 24  1  0  0  0  0
 10 25  1  0  0  0  0
 11 26  1  0  0  0  0
 11 27  1  0  0  0  0
 11 28  1  0  0  0  0
M  END
