
 OpenBabel09232611443D

 27 28  0  0  1  0  0  0  0  0999 V2000
   -2.4718    0.4972    0.3961 O   0  0  0  0  0  0  0  0  0  0  0  0
    0.9603    0.2722    0.4077 C   0  0  0  0  0  0  0  0  0  0  0  0
   -0.2302    0.5028   -0.5579 C   0  0  1  0  0  0  0  0  0  0  0  0
    0.5892   -1.2279    0.5970 C   0  0  2  0  0  0  0  0  0  0  0  0
   -0.0105   -0.5670   -1.6538 C   0  0  0  0  0  0  0  0  0  0  0  0
    0.5636   -1.7597   -0.8583 C   0  0  0  0  0  0  0  0  0  0  0  0
   -0.8842   -1.1808    1.0793 C   0  0  0  0  0  0  0  0  0  0  0  0
   -1.3729   -0.0220    0.2748 C   0  0  0  0  0  0  0  0  0  0  0  0
    2.3745    0.5212   -0.1970 C   0  0  0  0  0  0  0  0  0  0  0  0
    0.9066    1.1214    1.7148 C   0  0  0  0  0  0  0  0  0  0  0  0
   -0.4494    1.9137   -1.1170 C   0  0  0  0  0  0  0  0  0  0  0  0
    1.2236   -1.8527    1.2615 H   0  0  0  0  0  0  0  0  0  0  0  0
    0.7412   -0.2297   -2.3999 H   0  0  0  0  0  0  0  0  0  0  0  0
   -0.9484   -0.8075   -2.2018 H   0  0  0  0  0  0  0  0  0  0  0  0
   -0.0203   -2.6991   -0.9686 H   0  0  0  0  0  0  0  0  0  0  0  0
    1.5973   -1.9719   -1.2044 H   0  0  0  0  0  0  0  0  0  0  0  0
   -0.9464   -0.9328    2.1591 H   0  0  0  0  0  0  0  0  0  0  0  0
   -1.4397   -2.1268    0.9023 H   0  0  0  0  0  0  0  0  0  0  0  0
    2.5792   -0.0033   -1.1471 H   0  0  0  0  0  0  0  0  0  0  0  0
    3.1546    0.1960    0.5241 H   0  0  0  0  0  0  0  0  0  0  0  0
    2.5173    1.6042   -0.3991 H   0  0  0  0  0  0  0  0  0  0  0  0
    1.6894    0.7773    2.4240 H   0  0  0  0  0  0  0  0  0  0  0  0
   -0.0633    1.0869    2.2464 H   0  0  0  0  0  0  0  0  0  0  0  0
    1.0933    2.1916    1.4827 H   0  0  0  0  0  0  0  0  0  0  0  0
    0.4363    2.2370   -1.7030 H   0  0  0  0  0  0  0  0  0  0  0  0
   -1.3385    1.9274   -1.7826 H   0  0  0  0  0  0  0  0  0  0  0  0
   -0.6131    2.6368   -0.2907 H   0  0  0  0  0  0  0  0  0  0  0  0
  1  8  2  0  0  0  0
  2  3  1  0  0  0  0
  2  4  1  0  0  0  0
  2  9  1  0  0  0  0
  2 10  1  0  0  0  0
  3  5  1  0  0  0  0
  3  8  1  0  0  0  0
  3 11  1  6  0  0  0
  4  6  1  0  0  0  0
  4  7  1  0  0  0  0
  4 12  1  1  0  0  0
  5  6  1  0  0  0  0
  5 13  1  0  0  0  0
  5 14  1  0  0  0  0
  6 15  1  0  0  0  0
  6 16  1  0  0  0  0
  7  8  1  0  0  0  0
  7 17  1  0  0  0  0
  7 18  1  0  0  0  0
  9 19  1  0  0  0  0
  9 20  1  0  0  0  0
  9 21  1  0  0  0  0
 10 22  1  0  0  0  0
 10 23  1  0  0  0  0
 10 24  1  0  0  0  0
 11 25  1  0  0  0  0
 11 26  1  0  0  0  0
 11 27  1  0  0  0  0
M  END
