
 OpenBabel09232611453D

 25 25  0  0  1  0  0  0  0  0999 V2000
    1.9994   -1.8715   -0.3474 O   0  0  0  0  0  0  0  0  0  0  0  0
   -0.8975    0.0587   -0.2961 C   0  0  2  0  0  0  0  0  0  0  0  0
   -0.0924   -1.0437    0.3947 C   0  0  0  0  0  0  0  0  0  0  0  0
   -0.3632    1.4492    0.1401 C   0  0  0  0  0  0  0  0  0  0  0  0
   -2.3895   -0.0701   -0.0358 C   0  0  0  0  0  0  0  0  0  0  0  0
    1.3456   -0.8920   -0.0219 C   0  0  0  0  0  0  0  0  0  0  0  0
    1.1488    1.5495    0.0666 C   0  0  0  0  0  0  0  0  0  0  0  0
    1.9486    0.4652   -0.0410 C   0  0  0  0  0  0  0  0  0  0  0  0
   -3.3088   -0.2881   -1.2090 C   0  0  0  0  0  0  0  0  0  0  0  0
    3.4405    0.6192   -0.1761 C   0  0  0  0  0  0  0  0  0  0  0  0
   -2.8945    0.0042    1.2086 C   0  0  0  0  0  0  0  0  0  0  0  0
   -0.7208   -0.0508   -1.3917 H   0  0  0  0  0  0  0  0  0  0  0  0
   -0.4635   -2.0615    0.1425 H   0  0  0  0  0  0  0  0  0  0  0  0
   -0.1648   -0.9034    1.4950 H   0  0  0  0  0  0  0  0  0  0  0  0
   -0.6521    1.7068    1.1809 H   0  0  0  0  0  0  0  0  0  0  0  0
   -0.8158    2.2025   -0.5401 H   0  0  0  0  0  0  0  0  0  0  0  0
    1.5862    2.5430    0.1074 H   0  0  0  0  0  0  0  0  0  0  0  0
   -3.2136    0.5627   -1.9158 H   0  0  0  0  0  0  0  0  0  0  0  0
   -3.0257   -1.2262   -1.7308 H   0  0  0  0  0  0  0  0  0  0  0  0
   -4.3733   -0.3680   -0.9001 H   0  0  0  0  0  0  0  0  0  0  0  0
    3.7766    0.1612   -1.1299 H   0  0  0  0  0  0  0  0  0  0  0  0
    3.9436    0.1061    0.6700 H   0  0  0  0  0  0  0  0  0  0  0  0
    3.7509    1.6860   -0.1733 H   0  0  0  0  0  0  0  0  0  0  0  0
   -3.9611   -0.0894    1.3880 H   0  0  0  0  0  0  0  0  0  0  0  0
   -2.2522    0.1587    2.0691 H   0  0  0  0  0  0  0  0  0  0  0  0
  1  6  2  0  0  0  0
  2  3  1  0  0  0  0
  2  4  1  0  0  0  0
  2  5  1  0  0  0  0
  2 12  1  6  0  0  0
  3  6  1  0  0  0  0
  3 13  1  0  0  0  0
  3 14  1  0  0  0  0
  4  7  1  0  0  0  0
  4 15  1  0  0  0  0
  4 16  1  0  0  0  0
  5  9  1  0  0  0  0
  5 11  2  0  0  0  0
  6  8  1  0  0  0  0
  7  8  2  0  0  0  0
  7 17  1  0  0  0  0
  8 10  1  0  0  0  0
  9 18  1  0  0  0  0
  9 19  1  0  0  0  0
  9 20  1  0  0  0  0
 10 21  1  0  0  0  0
 10 22  1  0  0  0  0
 10 23  1  0  0  0  0
 11 24  1  0  0  0  0
 11 25  1  0  0  0  0
M  END
