
 OpenBabel09232611463D

 27 28  0  0  1  0  0  0  0  0999 V2000
   -0.9649    2.1633   -0.3949 O   0  0  0  0  0  0  0  0  0  0  0  0
    1.2594   -0.4134   -0.0978 C   0  0  0  0  0  0  0  0  0  0  0  0
    0.8489    0.8395    0.7347 C   0  0  1  0  0  0  0  0  0  0  0  0
    0.0097   -0.0962   -0.9695 C   0  0  2  0  0  0  0  0  0  0  0  0
    0.1987    1.3952   -0.5654 C   0  0  1  0  0  0  0  0  0  0  0  0
   -0.2942    0.4759    1.7436 C   0  0  0  0  0  0  0  0  0  0  0  0
   -1.2523   -0.6104   -0.2642 C   0  0  0  0  0  0  0  0  0  0  0  0
    1.3602   -1.7950    0.6006 C   0  0  0  0  0  0  0  0  0  0  0  0
    2.5927   -0.1986   -0.8726 C   0  0  0  0  0  0  0  0  0  0  0  0
   -1.3940   -0.3218    1.0517 C   0  0  0  0  0  0  0  0  0  0  0  0
   -2.2837   -1.3952   -1.0207 C   0  0  0  0  0  0  0  0  0  0  0  0
    1.6439    1.4364    1.2312 H   0  0  0  0  0  0  0  0  0  0  0  0
    0.0251   -0.3667   -2.0474 H   0  0  0  0  0  0  0  0  0  0  0  0
    0.9406    1.9265   -1.1980 H   0  0  0  0  0  0  0  0  0  0  0  0
   -0.7295    1.4085    2.1609 H   0  0  0  0  0  0  0  0  0  0  0  0
    0.1229   -0.1176    2.5841 H   0  0  0  0  0  0  0  0  0  0  0  0
    0.4653   -2.0787    1.1843 H   0  0  0  0  0  0  0  0  0  0  0  0
    1.5132   -2.5902   -0.1597 H   0  0  0  0  0  0  0  0  0  0  0  0
    2.2225   -1.8011    1.3006 H   0  0  0  0  0  0  0  0  0  0  0  0
    2.6702    0.7526   -1.4306 H   0  0  0  0  0  0  0  0  0  0  0  0
    3.4465   -0.2229   -0.1621 H   0  0  0  0  0  0  0  0  0  0  0  0
    2.7312   -1.0148   -1.6135 H   0  0  0  0  0  0  0  0  0  0  0  0
   -2.2624   -0.6503    1.6144 H   0  0  0  0  0  0  0  0  0  0  0  0
   -1.4177    2.1660   -1.2774 H   0  0  0  0  0  0  0  0  0  0  0  0
   -3.1339   -1.6901   -0.3692 H   0  0  0  0  0  0  0  0  0  0  0  0
   -1.8174   -2.3144   -1.4325 H   0  0  0  0  0  0  0  0  0  0  0  0
   -2.6750   -0.7793   -1.8570 H   0  0  0  0  0  0  0  0  0  0  0  0
  1  5  1  0  0  0  0
  1 24  1  0  0  0  0
  2  3  1  0  0  0  0
  2  4  1  0  0  0  0
  2  8  1  0  0  0  0
  2  9  1  0  0  0  0
  3  5  1  6  0  0  0
  3  6  1  0  0  0  0
  3 12  1  0  0  0  0
  4  5  1  1  0  0  0
  4  7  1  0  0  0  0
  4 13  1  0  0  0  0
  5 14  1  6  0  0  0
  6 10  1  0  0  0  0
  6 15  1  0  0  0  0
  6 16  1  0  0  0  0
  7 10  2  0  0  0  0
  7 11  1  0  0  0  0
  8 17  1  0  0  0  0
  8 18  1  0  0  0  0
  8 19  1  0  0  0  0
  9 20  1  0  0  0  0
  9 21  1  0  0  0  0
  9 22  1  0  0  0  0
 10 23  1  0  0  0  0
 11 25  1  0  0  0  0
 11 26  1  0  0  0  0
 11 27  1  0  0  0  0
M  END
