
 OpenBabel09232611543D

 18 18  0  0  0  0  0  0  0  0999 V2000
    4.3627    0.4529    0.1050 O   0  0  0  0  0  0  0  0  0  0  0  0
   -0.4326   -0.2594    0.0198 C   0  0  0  0  0  0  0  0  0  0  0  0
   -0.8517    1.0882   -0.0287 C   0  0  0  0  0  0  0  0  0  0  0  0
   -1.4127   -1.2690    0.0275 C   0  0  0  0  0  0  0  0  0  0  0  0
   -2.2135    1.4053   -0.0680 C   0  0  0  0  0  0  0  0  0  0  0  0
   -2.7720   -0.9451   -0.0120 C   0  0  0  0  0  0  0  0  0  0  0  0
    0.9995   -0.6698    0.0634 C   0  0  0  0  0  0  0  0  0  0  0  0
   -3.1722    0.3909   -0.0597 C   0  0  0  0  0  0  0  0  0  0  0  0
    2.0430    0.1780    0.0617 C   0  0  0  0  0  0  0  0  0  0  0  0
    3.4260   -0.3290    0.1071 C   0  0  0  0  0  0  0  0  0  0  0  0
   -0.1479    1.9061   -0.0369 H   0  0  0  0  0  0  0  0  0  0  0  0
   -1.1264   -2.3132    0.0642 H   0  0  0  0  0  0  0  0  0  0  0  0
    1.2097   -1.7365    0.0991 H   0  0  0  0  0  0  0  0  0  0  0  0
   -2.5260    2.4410   -0.1051 H   0  0  0  0  0  0  0  0  0  0  0  0
   -3.5156   -1.7316   -0.0055 H   0  0  0  0  0  0  0  0  0  0  0  0
   -4.2250    0.6402   -0.0902 H   0  0  0  0  0  0  0  0  0  0  0  0
    1.9058    1.2511    0.0275 H   0  0  0  0  0  0  0  0  0  0  0  0
    3.6249   -1.3959    0.1425 H   0  0  0  0  0  0  0  0  0  0  0  0
  1 10  2  0  0  0  0
  2  3  2  0  0  0  0
  2  4  1  0  0  0  0
  2  7  1  0  0  0  0
  3  5  1  0  0  0  0
  3 11  1  0  0  0  0
  4  6  2  0  0  0  0
  4 12  1  0  0  0  0
  5  8  2  0  0  0  0
  5 14  1  0  0  0  0
  6  8  1  0  0  0  0
  6 15  1  0  0  0  0
  7  9  2  0  0  0  0
  7 13  1  0  0  0  0
  8 16  1  0  0  0  0
  9 10  1  0  0  0  0
  9 17  1  0  0  0  0
 10 18  1  0  0  0  0
M  END
