
 OpenBabel09232612493D

 31 30  0  0  1  0  0  0  0  0999 V2000
   -3.9391    1.6914   -0.5827 O   0  0  0  0  0  0  0  0  0  0  0  0
   -1.2412   -0.7815    0.4514 C   0  0  1  0  0  0  0  0  0  0  0  0
   -0.1202   -1.4857   -0.3608 C   0  0  0  0  0  0  0  0  0  0  0  0
   -2.1287    0.1083   -0.4574 C   0  0  0  0  0  0  0  0  0  0  0  0
    0.8694   -0.5642   -1.1000 C   0  0  0  0  0  0  0  0  0  0  0  0
   -2.0678   -1.8611    1.1731 C   0  0  0  0  0  0  0  0  0  0  0  0
   -3.2192    0.8763    0.3019 C   0  0  0  0  0  0  0  0  0  0  0  0
    1.5846    0.3795   -0.1556 C   0  0  0  0  0  0  0  0  0  0  0  0
    2.9168    0.4353    0.0974 C   0  0  0  0  0  0  0  0  0  0  0  0
    3.4352    1.4632    1.0726 C   0  0  0  0  0  0  0  0  0  0  0  0
    3.9602   -0.4662   -0.5230 C   0  0  0  0  0  0  0  0  0  0  0  0
   -0.7740   -0.1458    1.2335 H   0  0  0  0  0  0  0  0  0  0  0  0
   -0.5900   -2.1562   -1.1142 H   0  0  0  0  0  0  0  0  0  0  0  0
    0.4753   -2.1216    0.3318 H   0  0  0  0  0  0  0  0  0  0  0  0
   -2.6023   -0.5131   -1.2488 H   0  0  0  0  0  0  0  0  0  0  0  0
   -1.4911    0.8728   -0.9463 H   0  0  0  0  0  0  0  0  0  0  0  0
    1.5569   -1.2213   -1.6567 H   0  0  0  0  0  0  0  0  0  0  0  0
    0.3446    0.0366   -1.8696 H   0  0  0  0  0  0  0  0  0  0  0  0
   -2.5776   -2.5216    0.4392 H   0  0  0  0  0  0  0  0  0  0  0  0
   -1.4070   -2.4842    1.8131 H   0  0  0  0  0  0  0  0  0  0  0  0
   -2.8261   -1.4118    1.8444 H   0  0  0  0  0  0  0  0  0  0  0  0
   -2.7722    1.4932    1.1150 H   0  0  0  0  0  0  0  0  0  0  0  0
   -3.9393    0.1783    0.7731 H   0  0  0  0  0  0  0  0  0  0  0  0
    0.9423    1.0873    0.3596 H   0  0  0  0  0  0  0  0  0  0  0  0
   -3.3891    2.5039   -0.7353 H   0  0  0  0  0  0  0  0  0  0  0  0
    2.6271    2.0961    1.4983 H   0  0  0  0  0  0  0  0  0  0  0  0
    4.1597    2.1297    0.5593 H   0  0  0  0  0  0  0  0  0  0  0  0
    3.9495    0.9514    1.9130 H   0  0  0  0  0  0  0  0  0  0  0  0
    4.4919   -1.0130    0.2837 H   0  0  0  0  0  0  0  0  0  0  0  0
    3.5792   -1.2225   -1.2272 H   0  0  0  0  0  0  0  0  0  0  0  0
    4.6974    0.1556   -1.0730 H   0  0  0  0  0  0  0  0  0  0  0  0
  1  7  1  0  0  0  0
  1 25  1  0  0  0  0
  2  3  1  0  0  0  0
  2  4  1  0  0  0  0
  2  6  1  0  0  0  0
  2 12  1  1  0  0  0
  3  5  1  0  0  0  0
  3 13  1  0  0  0  0
  3 14  1  0  0  0  0
  4  7  1  0  0  0  0
  4 15  1  0  0  0  0
  4 16  1  0  0  0  0
  5  8  1  0  0  0  0
  5 17  1  0  0  0  0
  5 18  1  0  0  0  0
  6 19  1  0  0  0  0
  6 20  1  0  0  0  0
  6 21  1  0  0  0  0
  7 22  1  0  0  0  0
  7 23  1  0  0  0  0
  8  9  2  0  0  0  0
  8 24  1  0  0  0  0
  9 10  1  0  0  0  0
  9 11  1  0  0  0  0
 10 26  1  0  0  0  0
 10 27  1  0  0  0  0
 10 28  1  0  0  0  0
 11 29  1  0  0  0  0
 11 30  1  0  0  0  0
 11 31  1  0  0  0  0
M  END
