
 OpenBabel09232611573D

 27 26  0  0  0  0  0  0  0  0999 V2000
   -3.2851   -1.8897    0.3400 O   0  0  0  0  0  0  0  0  0  0  0  0
   -0.2330    1.8183    0.7087 C   0  0  0  0  0  0  0  0  0  0  0  0
    1.2758    1.6760    0.4624 C   0  0  0  0  0  0  0  0  0  0  0  0
   -1.0464    0.8611   -0.1451 C   0  0  0  0  0  0  0  0  0  0  0  0
    1.7520    0.2946    0.8574 C   0  0  0  0  0  0  0  0  0  0  0  0
    2.3370   -0.6306    0.0563 C   0  0  0  0  0  0  0  0  0  0  0  0
   -0.9961    0.9932   -1.6494 C   0  0  0  0  0  0  0  0  0  0  0  0
   -1.8033   -0.0858    0.4542 C   0  0  0  0  0  0  0  0  0  0  0  0
    2.7422   -1.9589    0.6447 C   0  0  0  0  0  0  0  0  0  0  0  0
    2.6216   -0.4475   -1.4171 C   0  0  0  0  0  0  0  0  0  0  0  0
   -2.6320   -1.0661   -0.2795 C   0  0  0  0  0  0  0  0  0  0  0  0
   -0.5490    2.8580    0.4771 H   0  0  0  0  0  0  0  0  0  0  0  0
   -0.4232    1.6500    1.7924 H   0  0  0  0  0  0  0  0  0  0  0  0
    1.4971    1.9468   -0.5817 H   0  0  0  0  0  0  0  0  0  0  0  0
    1.8122    2.4146    1.0953 H   0  0  0  0  0  0  0  0  0  0  0  0
    1.5917    0.0419    1.9026 H   0  0  0  0  0  0  0  0  0  0  0  0
   -2.0143    1.1921   -2.0451 H   0  0  0  0  0  0  0  0  0  0  0  0
   -0.5980    0.0590   -2.0988 H   0  0  0  0  0  0  0  0  0  0  0  0
   -0.3459    1.8353   -1.9629 H   0  0  0  0  0  0  0  0  0  0  0  0
    3.8358   -2.1026    0.5188 H   0  0  0  0  0  0  0  0  0  0  0  0
    2.2080   -2.7767    0.1170 H   0  0  0  0  0  0  0  0  0  0  0  0
    2.5067   -2.0367    1.7278 H   0  0  0  0  0  0  0  0  0  0  0  0
    3.7122   -0.5560   -1.5935 H   0  0  0  0  0  0  0  0  0  0  0  0
    2.3145    0.5207   -1.8432 H   0  0  0  0  0  0  0  0  0  0  0  0
    2.0904   -1.2369   -1.9891 H   0  0  0  0  0  0  0  0  0  0  0  0
   -1.8155   -0.1492    1.5392 H   0  0  0  0  0  0  0  0  0  0  0  0
   -2.6751   -1.0742   -1.3629 H   0  0  0  0  0  0  0  0  0  0  0  0
  1 11  2  0  0  0  0
  2  3  1  0  0  0  0
  2  4  1  0  0  0  0
  2 12  1  0  0  0  0
  2 13  1  0  0  0  0
  3  5  1  0  0  0  0
  3 14  1  0  0  0  0
  3 15  1  0  0  0  0
  4  7  1  0  0  0  0
  4  8  2  0  0  0  0
  5  6  2  0  0  0  0
  5 16  1  0  0  0  0
  6  9  1  0  0  0  0
  6 10  1  0  0  0  0
  7 17  1  0  0  0  0
  7 18  1  0  0  0  0
  7 19  1  0  0  0  0
  8 11  1  0  0  0  0
  8 26  1  0  0  0  0
  9 20  1  0  0  0  0
  9 21  1  0  0  0  0
  9 22  1  0  0  0  0
 10 23  1  0  0  0  0
 10 24  1  0  0  0  0
 10 25  1  0  0  0  0
 11 27  1  0  0  0  0
M  END
