
 OpenBabel09232611593D

 29 28  0  0  1  0  0  0  0  0999 V2000
    4.6733    0.6165    0.3093 O   0  0  0  0  0  0  0  0  0  0  0  0
    1.3861   -0.2535   -0.3532 C   0  0  1  0  0  0  0  0  0  0  0  0
   -0.0278   -0.1297    0.2676 C   0  0  0  0  0  0  0  0  0  0  0  0
   -1.0712   -1.0635   -0.3794 C   0  0  0  0  0  0  0  0  0  0  0  0
    2.3129    0.8024    0.2910 C   0  0  0  0  0  0  0  0  0  0  0  0
    1.9723   -1.6686   -0.1773 C   0  0  0  0  0  0  0  0  0  0  0  0
   -2.4455   -0.8724    0.2167 C   0  0  0  0  0  0  0  0  0  0  0  0
   -3.2404    0.2110    0.0414 C   0  0  0  0  0  0  0  0  0  0  0  0
    3.6699    0.8305   -0.3520 C   0  0  0  0  0  0  0  0  0  0  0  0
   -4.5833    0.2656    0.7233 C   0  0  0  0  0  0  0  0  0  0  0  0
   -2.8781    1.3899   -0.8306 C   0  0  0  0  0  0  0  0  0  0  0  0
    1.3092   -0.0307   -1.4412 H   0  0  0  0  0  0  0  0  0  0  0  0
    0.0208   -0.3400    1.3592 H   0  0  0  0  0  0  0  0  0  0  0  0
   -0.3542    0.9226    0.1505 H   0  0  0  0  0  0  0  0  0  0  0  0
   -1.1178   -0.9314   -1.4815 H   0  0  0  0  0  0  0  0  0  0  0  0
   -0.7724   -2.1109   -0.1715 H   0  0  0  0  0  0  0  0  0  0  0  0
    2.4110    0.6014    1.3813 H   0  0  0  0  0  0  0  0  0  0  0  0
    1.8685    1.8131    0.1634 H   0  0  0  0  0  0  0  0  0  0  0  0
    1.3531   -2.4292   -0.6926 H   0  0  0  0  0  0  0  0  0  0  0  0
    2.9840   -1.7332   -0.6293 H   0  0  0  0  0  0  0  0  0  0  0  0
    2.0470   -1.9288    0.9002 H   0  0  0  0  0  0  0  0  0  0  0  0
   -2.8125   -1.6929    0.8284 H   0  0  0  0  0  0  0  0  0  0  0  0
    3.7621    1.0442   -1.4119 H   0  0  0  0  0  0  0  0  0  0  0  0
   -4.7835   -0.6365    1.3404 H   0  0  0  0  0  0  0  0  0  0  0  0
   -4.6256    1.1545    1.3870 H   0  0  0  0  0  0  0  0  0  0  0  0
   -5.3850    0.3472   -0.0404 H   0  0  0  0  0  0  0  0  0  0  0  0
   -2.8385    2.3111   -0.2125 H   0  0  0  0  0  0  0  0  0  0  0  0
   -3.6578    1.5165   -1.6106 H   0  0  0  0  0  0  0  0  0  0  0  0
   -1.9147    1.2770   -1.3619 H   0  0  0  0  0  0  0  0  0  0  0  0
  1  9  2  0  0  0  0
  2  3  1  0  0  0  0
  2  5  1  0  0  0  0
  2  6  1  0  0  0  0
  2 12  1  6  0  0  0
  3  4  1  0  0  0  0
  3 13  1  0  0  0  0
  3 14  1  0  0  0  0
  4  7  1  0  0  0  0
  4 15  1  0  0  0  0
  4 16  1  0  0  0  0
  5  9  1  0  0  0  0
  5 17  1  0  0  0  0
  5 18  1  0  0  0  0
  6 19  1  0  0  0  0
  6 20  1  0  0  0  0
  6 21  1  0  0  0  0
  7  8  2  0  0  0  0
  7 22  1  0  0  0  0
  8 10  1  0  0  0  0
  8 11  1  0  0  0  0
  9 23  1  0  0  0  0
 10 24  1  0  0  0  0
 10 25  1  0  0  0  0
 10 26  1  0  0  0  0
 11 27  1  0  0  0  0
 11 28  1  0  0  0  0
 11 29  1  0  0  0  0
M  END
