
 OpenBabel09232612543D

 27 28  0  0  1  0  0  0  0  0999 V2000
    0.1908    2.0746   -0.6239 O   0  0  0  0  0  0  0  0  0  0  0  0
   -1.2016    0.2175    0.1022 C   0  0  2  0  0  0  0  0  0  0  0  0
    0.4256   -1.2184    0.6145 C   0  0  1  0  0  0  0  0  0  0  0  0
    1.2299    0.0056    0.0639 C   0  0  0  0  0  0  0  0  0  0  0  0
   -0.7581   -0.5499    1.3421 C   0  0  0  0  0  0  0  0  0  0  0  0
   -1.4140   -0.9139   -0.9232 C   0  0  0  0  0  0  0  0  0  0  0  0
   -0.3536   -1.9457   -0.5034 C   0  0  0  0  0  0  0  0  0  0  0  0
    0.0856    0.9124   -0.2595 C   0  0  0  0  0  0  0  0  0  0  0  0
   -2.4049    1.1506    0.2526 C   0  0  0  0  0  0  0  0  0  0  0  0
    2.1243    0.6320    1.1582 C   0  0  0  0  0  0  0  0  0  0  0  0
    2.1079   -0.3052   -1.1649 C   0  0  0  0  0  0  0  0  0  0  0  0
    1.0583   -1.9262    1.1926 H   0  0  0  0  0  0  0  0  0  0  0  0
   -1.5234   -1.2690    1.7170 H   0  0  0  0  0  0  0  0  0  0  0  0
   -0.4681    0.1080    2.1886 H   0  0  0  0  0  0  0  0  0  0  0  0
   -1.2864   -0.5304   -1.9597 H   0  0  0  0  0  0  0  0  0  0  0  0
   -2.4177   -1.3857   -0.8284 H   0  0  0  0  0  0  0  0  0  0  0  0
   -0.8759   -2.8037   -0.0202 H   0  0  0  0  0  0  0  0  0  0  0  0
    0.2394   -2.3733   -1.3370 H   0  0  0  0  0  0  0  0  0  0  0  0
   -2.1960    1.9228    1.0233 H   0  0  0  0  0  0  0  0  0  0  0  0
   -2.6229    1.6541   -0.7133 H   0  0  0  0  0  0  0  0  0  0  0  0
   -3.2999    0.5720    0.5651 H   0  0  0  0  0  0  0  0  0  0  0  0
    1.5593    0.9189    2.0667 H   0  0  0  0  0  0  0  0  0  0  0  0
    2.9152   -0.0870    1.4616 H   0  0  0  0  0  0  0  0  0  0  0  0
    2.6179    1.5512    0.7748 H   0  0  0  0  0  0  0  0  0  0  0  0
    2.6169    0.6181   -1.5163 H   0  0  0  0  0  0  0  0  0  0  0  0
    2.8812   -1.0592   -0.9047 H   0  0  0  0  0  0  0  0  0  0  0  0
    1.5119   -0.6829   -2.0195 H   0  0  0  0  0  0  0  0  0  0  0  0
  1  8  2  0  0  0  0
  2  5  1  0  0  0  0
  2  6  1  0  0  0  0
  2  8  1  0  0  0  0
  2  9  1  1  0  0  0
  3  4  1  0  0  0  0
  3  5  1  0  0  0  0
  3  7  1  0  0  0  0
  3 12  1  1  0  0  0
  4  8  1  0  0  0  0
  4 10  1  0  0  0  0
  4 11  1  0  0  0  0
  5 13  1  0  0  0  0
  5 14  1  0  0  0  0
  6  7  1  0  0  0  0
  6 15  1  0  0  0  0
  6 16  1  0  0  0  0
  7 17  1  0  0  0  0
  7 18  1  0  0  0  0
  9 19  1  0  0  0  0
  9 20  1  0  0  0  0
  9 21  1  0  0  0  0
 10 22  1  0  0  0  0
 10 23  1  0  0  0  0
 10 24  1  0  0  0  0
 11 25  1  0  0  0  0
 11 26  1  0  0  0  0
 11 27  1  0  0  0  0
M  END
