
 OpenBabel09232612503D

 29 30  0  0  1  0  0  0  0  0999 V2000
    0.1538    2.2017   -0.1644 O   0  0  0  0  0  0  0  0  0  0  0  0
   -1.2096    0.1823   -0.0328 C   0  0  2  0  0  0  0  0  0  0  0  0
    0.4344   -1.0387    0.8150 C   0  0  1  0  0  0  0  0  0  0  0  0
    1.2146   -0.0002   -0.0488 C   0  0  0  0  0  0  0  0  0  0  0  0
    0.0547    0.8727   -0.6239 C   0  0  2  0  0  0  0  0  0  0  0  0
   -0.7399   -0.2155    1.3592 C   0  0  0  0  0  0  0  0  0  0  0  0
   -1.4007   -1.1862   -0.7247 C   0  0  0  0  0  0  0  0  0  0  0  0
   -0.3304   -2.0488   -0.0568 C   0  0  0  0  0  0  0  0  0  0  0  0
   -2.4784    1.0416   -0.1071 C   0  0  0  0  0  0  0  0  0  0  0  0
    2.1819    0.8057    0.8621 C   0  0  0  0  0  0  0  0  0  0  0  0
    2.0720   -0.6352   -1.1676 C   0  0  0  0  0  0  0  0  0  0  0  0
    1.0820   -1.5650    1.5499 H   0  0  0  0  0  0  0  0  0  0  0  0
    0.0290    0.8728   -1.7407 H   0  0  0  0  0  0  0  0  0  0  0  0
   -1.4856   -0.8233    1.9227 H   0  0  0  0  0  0  0  0  0  0  0  0
   -0.4492    0.6492    1.9932 H   0  0  0  0  0  0  0  0  0  0  0  0
   -1.2901   -1.0934   -1.8271 H   0  0  0  0  0  0  0  0  0  0  0  0
   -2.3924   -1.6400   -0.5004 H   0  0  0  0  0  0  0  0  0  0  0  0
   -0.8357   -2.7531    0.6442 H   0  0  0  0  0  0  0  0  0  0  0  0
    0.2655   -2.6774   -0.7492 H   0  0  0  0  0  0  0  0  0  0  0  0
   -2.3432    1.9934    0.4481 H   0  0  0  0  0  0  0  0  0  0  0  0
   -2.7223    1.2716   -1.1661 H   0  0  0  0  0  0  0  0  0  0  0  0
   -3.3348    0.5007    0.3486 H   0  0  0  0  0  0  0  0  0  0  0  0
    2.9525    0.1330    1.2968 H   0  0  0  0  0  0  0  0  0  0  0  0
    2.7032    1.5927    0.2754 H   0  0  0  0  0  0  0  0  0  0  0  0
    1.6620    1.3022    1.7061 H   0  0  0  0  0  0  0  0  0  0  0  0
    1.4558   -1.1932   -1.9006 H   0  0  0  0  0  0  0  0  0  0  0  0
    2.6016    0.1576   -1.7386 H   0  0  0  0  0  0  0  0  0  0  0  0
    2.8274   -1.3264   -0.7361 H   0  0  0  0  0  0  0  0  0  0  0  0
   -0.3372    2.7735   -0.8107 H   0  0  0  0  0  0  0  0  0  0  0  0
  1  5  1  0  0  0  0
  1 29  1  0  0  0  0
  2  5  1  6  0  0  0
  2  6  1  0  0  0  0
  2  7  1  0  0  0  0
  2  9  1  0  0  0  0
  3  4  1  0  0  0  0
  3  6  1  0  0  0  0
  3  8  1  0  0  0  0
  3 12  1  1  0  0  0
  4  5  1  0  0  0  0
  4 10  1  0  0  0  0
  4 11  1  0  0  0  0
  5 13  1  6  0  0  0
  6 14  1  0  0  0  0
  6 15  1  0  0  0  0
  7  8  1  0  0  0  0
  7 16  1  0  0  0  0
  7 17  1  0  0  0  0
  8 18  1  0  0  0  0
  8 19  1  0  0  0  0
  9 20  1  0  0  0  0
  9 21  1  0  0  0  0
  9 22  1  0  0  0  0
 10 23  1  0  0  0  0
 10 24  1  0  0  0  0
 10 25  1  0  0  0  0
 11 26  1  0  0  0  0
 11 27  1  0  0  0  0
 11 28  1  0  0  0  0
M  END
