
 OpenBabel09232612573D

 30 30  0  0  1  0  0  0  0  0999 V2000
    0.4069    0.5955    0.2013 O   0  0  0  0  0  0  0  0  0  0  0  0
   -2.1142   -0.2624    1.3878 O   0  0  0  0  0  0  0  0  0  0  0  0
   -0.6369   -0.0228   -0.5380 C   0  0  1  0  0  0  0  0  0  0  0  0
    1.5140   -0.2970    0.1921 C   0  0  2  0  0  0  0  0  0  0  0  0
   -0.2989   -1.5123   -0.6209 C   0  0  0  0  0  0  0  0  0  0  0  0
    1.1795   -1.4033   -0.8152 C   0  0  0  0  0  0  0  0  0  0  0  0
   -2.0318    0.2728    0.0873 C   0  0  0  0  0  0  0  0  0  0  0  0
    1.7060   -0.8492    1.6186 C   0  0  0  0  0  0  0  0  0  0  0  0
   -3.1471   -0.3659   -0.7598 C   0  0  0  0  0  0  0  0  0  0  0  0
   -2.2764    1.7956    0.1382 C   0  0  0  0  0  0  0  0  0  0  0  0
    2.7998    0.3888   -0.2279 C   0  0  0  0  0  0  0  0  0  0  0  0
    2.8758    1.6877   -0.5415 C   0  0  0  0  0  0  0  0  0  0  0  0
   -0.6011    0.4058   -1.5676 H   0  0  0  0  0  0  0  0  0  0  0  0
   -0.8256   -2.0691   -1.4247 H   0  0  0  0  0  0  0  0  0  0  0  0
   -0.5056   -2.0135    0.3480 H   0  0  0  0  0  0  0  0  0  0  0  0
    1.7570   -2.3464   -0.7043 H   0  0  0  0  0  0  0  0  0  0  0  0
    1.3400   -1.0193   -1.8512 H   0  0  0  0  0  0  0  0  0  0  0  0
    2.5413   -1.5819    1.6443 H   0  0  0  0  0  0  0  0  0  0  0  0
    1.9456   -0.0174    2.3157 H   0  0  0  0  0  0  0  0  0  0  0  0
    0.7939   -1.3474    2.0033 H   0  0  0  0  0  0  0  0  0  0  0  0
   -4.1428   -0.1405   -0.3204 H   0  0  0  0  0  0  0  0  0  0  0  0
   -3.1243    0.0234   -1.8006 H   0  0  0  0  0  0  0  0  0  0  0  0
   -3.0415   -1.4703   -0.7914 H   0  0  0  0  0  0  0  0  0  0  0  0
   -1.5054    2.2994    0.7594 H   0  0  0  0  0  0  0  0  0  0  0  0
   -3.2705    2.0140    0.5844 H   0  0  0  0  0  0  0  0  0  0  0  0
   -2.2424    2.2339   -0.8826 H   0  0  0  0  0  0  0  0  0  0  0  0
    3.7078   -0.2064   -0.2781 H   0  0  0  0  0  0  0  0  0  0  0  0
   -1.4329    0.1883    1.9522 H   0  0  0  0  0  0  0  0  0  0  0  0
    3.8286    2.1159   -0.8351 H   0  0  0  0  0  0  0  0  0  0  0  0
    2.0067    2.3364   -0.5124 H   0  0  0  0  0  0  0  0  0  0  0  0
  1  3  1  0  0  0  0
  1  4  1  0  0  0  0
  2  7  1  0  0  0  0
  2 28  1  0  0  0  0
  3  5  1  0  0  0  0
  3  7  1  0  0  0  0
  3 13  1  6  0  0  0
  4  6  1  0  0  0  0
  4  8  1  0  0  0  0
  4 11  1  6  0  0  0
  5  6  1  0  0  0  0
  5 14  1  0  0  0  0
  5 15  1  0  0  0  0
  6 16  1  0  0  0  0
  6 17  1  0  0  0  0
  7  9  1  0  0  0  0
  7 10  1  0  0  0  0
  8 18  1  0  0  0  0
  8 19  1  0  0  0  0
  8 20  1  0  0  0  0
  9 21  1  0  0  0  0
  9 22  1  0  0  0  0
  9 23  1  0  0  0  0
 10 24  1  0  0  0  0
 10 25  1  0  0  0  0
 10 26  1  0  0  0  0
 11 12  2  0  0  0  0
 11 27  1  0  0  0  0
 12 29  1  0  0  0  0
 12 30  1  0  0  0  0
M  END
