
 OpenBabel09232613013D

 29 29  0  0  1  0  0  0  0  0999 V2000
    0.2817   -2.0980    0.9331 O   0  0  0  0  0  0  0  0  0  0  0  0
   -0.6720    0.0750    0.6874 C   0  0  1  0  0  0  0  0  0  0  0  0
    0.2511    1.3029    0.9114 C   0  0  0  0  0  0  0  0  0  0  0  0
    2.0134    0.3587   -0.7013 C   0  0  2  0  0  0  0  0  0  0  0  0
    1.1416    1.5869   -0.3219 C   0  0  0  0  0  0  0  0  0  0  0  0
   -1.8060    0.3099   -0.3672 C   0  0  0  0  0  0  0  0  0  0  0  0
    1.1191   -0.8791   -0.9277 C   0  0  0  0  0  0  0  0  0  0  0  0
    0.2306   -1.0702    0.2749 C   0  0  0  0  0  0  0  0  0  0  0  0
    3.0947    0.0717    0.3572 C   0  0  0  0  0  0  0  0  0  0  0  0
   -2.6557   -0.9622   -0.5435 C   0  0  0  0  0  0  0  0  0  0  0  0
   -2.7394    1.4655    0.0335 C   0  0  0  0  0  0  0  0  0  0  0  0
   -1.1712   -0.1706    1.6520 H   0  0  0  0  0  0  0  0  0  0  0  0
    0.9065    1.0994    1.7837 H   0  0  0  0  0  0  0  0  0  0  0  0
   -0.3301    2.2044    1.1861 H   0  0  0  0  0  0  0  0  0  0  0  0
    2.5554    0.5869   -1.6454 H   0  0  0  0  0  0  0  0  0  0  0  0
    0.4930    1.8528   -1.1826 H   0  0  0  0  0  0  0  0  0  0  0  0
    1.7946    2.4639   -0.1227 H   0  0  0  0  0  0  0  0  0  0  0  0
   -1.3725    0.5599   -1.3573 H   0  0  0  0  0  0  0  0  0  0  0  0
    1.7406   -1.7795   -1.1265 H   0  0  0  0  0  0  0  0  0  0  0  0
    0.4791   -0.7138   -1.8191 H   0  0  0  0  0  0  0  0  0  0  0  0
    3.7416    0.9645    0.4916 H   0  0  0  0  0  0  0  0  0  0  0  0
    2.6634   -0.2075    1.3394 H   0  0  0  0  0  0  0  0  0  0  0  0
    3.7367   -0.7696    0.0194 H   0  0  0  0  0  0  0  0  0  0  0  0
   -3.1336   -1.2516    0.4172 H   0  0  0  0  0  0  0  0  0  0  0  0
   -3.4516   -0.7927   -1.3001 H   0  0  0  0  0  0  0  0  0  0  0  0
   -2.0348   -1.8093   -0.9025 H   0  0  0  0  0  0  0  0  0  0  0  0
   -3.2068    1.2689    1.0223 H   0  0  0  0  0  0  0  0  0  0  0  0
   -3.5450    1.5854   -0.7223 H   0  0  0  0  0  0  0  0  0  0  0  0
   -2.1985    2.4312    0.0716 H   0  0  0  0  0  0  0  0  0  0  0  0
  1  8  2  0  0  0  0
  2  3  1  0  0  0  0
  2  6  1  0  0  0  0
  2  8  1  0  0  0  0
  2 12  1  1  0  0  0
  3  5  1  0  0  0  0
  3 13  1  0  0  0  0
  3 14  1  0  0  0  0
  4  5  1  0  0  0  0
  4  7  1  0  0  0  0
  4  9  1  0  0  0  0
  4 15  1  6  0  0  0
  5 16  1  0  0  0  0
  5 17  1  0  0  0  0
  6 10  1  0  0  0  0
  6 11  1  0  0  0  0
  6 18  1  0  0  0  0
  7  8  1  0  0  0  0
  7 19  1  0  0  0  0
  7 20  1  0  0  0  0
  9 21  1  0  0  0  0
  9 22  1  0  0  0  0
  9 23  1  0  0  0  0
 10 24  1  0  0  0  0
 10 25  1  0  0  0  0
 10 26  1  0  0  0  0
 11 27  1  0  0  0  0
 11 28  1  0  0  0  0
 11 29  1  0  0  0  0
M  END
