
 OpenBabel09252610153D

 26 25  0  0  0  0  0  0  0  0999 V2000
    3.5486    3.3537    2.2874 C   0  0  0  0  0  0  0  0  0  0  0  0
    3.0657    1.9131    2.2932 C   0  0  0  0  0  0  0  0  0  0  0  0
    1.9758    1.4290    1.3954 C   0  0  0  0  0  0  0  0  0  0  0  0
    3.6264    1.0358    3.1420 C   0  0  0  0  0  0  0  0  0  0  0  0
    4.2718    3.7055    0.9789 C   0  0  0  0  0  0  0  0  0  0  0  0
    1.2520    2.2225    0.5969 C   0  0  0  0  0  0  0  0  0  0  0  0
    4.6951    5.1567    1.0019 C   0  0  0  0  0  0  0  0  0  0  0  0
    5.9580    5.6462    0.9226 C   0  0  0  0  0  0  0  0  0  0  0  0
    6.1692    7.1393    0.9607 C   0  0  0  0  0  0  0  0  0  0  0  0
    7.2095    4.8070    0.7982 C   0  0  0  0  0  0  0  0  0  0  0  0
    2.6833    4.0282    2.4653 H   0  0  0  0  0  0  0  0  0  0  0  0
    4.2742    3.5227    3.1149 H   0  0  0  0  0  0  0  0  0  0  0  0
    1.7325    0.3694    1.3969 H   0  0  0  0  0  0  0  0  0  0  0  0
    3.3020   -0.0003    3.1751 H   0  0  0  0  0  0  0  0  0  0  0  0
    4.4207    1.3339    3.8197 H   0  0  0  0  0  0  0  0  0  0  0  0
    3.6060    3.5681    0.1047 H   0  0  0  0  0  0  0  0  0  0  0  0
    5.1096    2.9995    0.8526 H   0  0  0  0  0  0  0  0  0  0  0  0
    0.4692    1.7926   -0.0197 H   0  0  0  0  0  0  0  0  0  0  0  0
    1.4056    3.2935    0.5468 H   0  0  0  0  0  0  0  0  0  0  0  0
    3.8749    5.8649    1.0914 H   0  0  0  0  0  0  0  0  0  0  0  0
    6.6739    7.4668    0.0275 H   0  0  0  0  0  0  0  0  0  0  0  0
    5.2168    7.7041    1.0535 H   0  0  0  0  0  0  0  0  0  0  0  0
    6.8106    7.4016    1.8282 H   0  0  0  0  0  0  0  0  0  0  0  0
    7.7398    5.0818   -0.1376 H   0  0  0  0  0  0  0  0  0  0  0  0
    7.8772    5.0221    1.6587 H   0  0  0  0  0  0  0  0  0  0  0  0
    7.0506    3.7172    0.7762 H   0  0  0  0  0  0  0  0  0  0  0  0
  1  2  1  0  0  0  0
  1  5  1  0  0  0  0
  1 11  1  0  0  0  0
  1 12  1  0  0  0  0
  2  3  1  0  0  0  0
  2  4  2  0  0  0  0
  3  6  2  0  0  0  0
  3 13  1  0  0  0  0
  4 14  1  0  0  0  0
  4 15  1  0  0  0  0
  5  7  1  0  0  0  0
  5 16  1  0  0  0  0
  5 17  1  0  0  0  0
  6 18  1  0  0  0  0
  6 19  1  0  0  0  0
  7  8  2  0  0  0  0
  7 20  1  0  0  0  0
  8  9  1  0  0  0  0
  8 10  1  0  0  0  0
  9 21  1  0  0  0  0
  9 22  1  0  0  0  0
  9 23  1  0  0  0  0
 10 24  1  0  0  0  0
 10 25  1  0  0  0  0
 10 26  1  0  0  0  0
M  END
