
 OpenBabel09242609283D

 61 60  0  0  1  0  0  0  0  0999 V2000
    1.4410    4.0563    1.1627 O   0  0  0  0  0  0  0  0  0  0  0  0
    0.5066   -2.8550   -0.5456 C   0  0  1  0  0  0  0  0  0  0  0  0
   -1.0371   -2.7142   -0.4960 C   0  0  0  0  0  0  0  0  0  0  0  0
   -3.7146   -1.1124   -0.0227 C   0  0  2  0  0  0  0  0  0  0  0  0
   -1.6219   -2.4046    0.8981 C   0  0  0  0  0  0  0  0  0  0  0  0
   -3.1561   -2.2402    0.8897 C   0  0  0  0  0  0  0  0  0  0  0  0
    1.2004   -1.5150   -0.1875 C   0  0  0  0  0  0  0  0  0  0  0  0
   -3.0923    0.2638    0.3264 C   0  0  0  0  0  0  0  0  0  0  0  0
    2.7197   -1.5245   -0.4219 C   0  0  0  0  0  0  0  0  0  0  0  0
    3.3176   -0.1371   -0.1346 C   0  0  0  0  0  0  0  0  0  0  0  0
    0.9932   -4.0283    0.3226 C   0  0  0  0  0  0  0  0  0  0  0  0
   -3.5477    1.4086   -0.5970 C   0  0  0  0  0  0  0  0  0  0  0  0
   -5.2479   -1.0966    0.0995 C   0  0  0  0  0  0  0  0  0  0  0  0
    4.8347   -0.0423   -0.4156 C   0  0  0  0  0  0  0  0  0  0  0  0
   -2.8265    2.7280   -0.2686 C   0  0  0  0  0  0  0  0  0  0  0  0
    5.6597   -0.9730    0.4873 C   0  0  0  0  0  0  0  0  0  0  0  0
    5.3016    1.4064   -0.2173 C   0  0  0  0  0  0  0  0  0  0  0  0
   -1.3151    2.6482   -0.4443 C   0  0  0  0  0  0  0  0  0  0  0  0
   -0.7937    2.3550   -1.8374 C   0  0  0  0  0  0  0  0  0  0  0  0
   -0.5251    2.8508    0.6422 C   0  0  0  0  0  0  0  0  0  0  0  0
    0.9814    2.8168    0.7032 C   0  0  0  0  0  0  0  0  0  0  0  0
    0.7588   -3.0935   -1.6032 H   0  0  0  0  0  0  0  0  0  0  0  0
   -1.4979   -3.6546   -0.8706 H   0  0  0  0  0  0  0  0  0  0  0  0
   -1.3097   -1.9032   -1.2026 H   0  0  0  0  0  0  0  0  0  0  0  0
   -3.4707   -1.3537   -1.0790 H   0  0  0  0  0  0  0  0  0  0  0  0
   -1.1644   -1.4920    1.3236 H   0  0  0  0  0  0  0  0  0  0  0  0
   -1.3831   -3.2388    1.5901 H   0  0  0  0  0  0  0  0  0  0  0  0
   -3.6050   -3.2079    0.5736 H   0  0  0  0  0  0  0  0  0  0  0  0
   -3.4744   -2.0466    1.9381 H   0  0  0  0  0  0  0  0  0  0  0  0
    0.7644   -0.7207   -0.8340 H   0  0  0  0  0  0  0  0  0  0  0  0
    1.0064   -1.2479    0.8726 H   0  0  0  0  0  0  0  0  0  0  0  0
   -3.3153    0.5253    1.3841 H   0  0  0  0  0  0  0  0  0  0  0  0
   -1.9946    0.1825    0.2072 H   0  0  0  0  0  0  0  0  0  0  0  0
    2.9246   -1.7954   -1.4807 H   0  0  0  0  0  0  0  0  0  0  0  0
    3.1874   -2.2734    0.2453 H   0  0  0  0  0  0  0  0  0  0  0  0
    2.8021    0.5940   -0.7956 H   0  0  0  0  0  0  0  0  0  0  0  0
    3.1143    0.1442    0.9226 H   0  0  0  0  0  0  0  0  0  0  0  0
    0.8172   -3.8326    1.4003 H   0  0  0  0  0  0  0  0  0  0  0  0
    0.4634   -4.9603    0.0319 H   0  0  0  0  0  0  0  0  0  0  0  0
    2.0762   -4.2112    0.1748 H   0  0  0  0  0  0  0  0  0  0  0  0
   -3.3643    1.1334   -1.6568 H   0  0  0  0  0  0  0  0  0  0  0  0
   -4.6363    1.5834   -0.4747 H   0  0  0  0  0  0  0  0  0  0  0  0
   -5.7027   -0.3704   -0.6033 H   0  0  0  0  0  0  0  0  0  0  0  0
   -5.6618   -2.0949   -0.1584 H   0  0  0  0  0  0  0  0  0  0  0  0
   -5.5560   -0.8403    1.1359 H   0  0  0  0  0  0  0  0  0  0  0  0
    5.0225   -0.3190   -1.4767 H   0  0  0  0  0  0  0  0  0  0  0  0
   -3.0983    3.0115    0.7725 H   0  0  0  0  0  0  0  0  0  0  0  0
   -3.2146    3.5272   -0.9358 H   0  0  0  0  0  0  0  0  0  0  0  0
    5.4913   -0.7305    1.5586 H   0  0  0  0  0  0  0  0  0  0  0  0
    6.7418   -0.8596    0.2623 H   0  0  0  0  0  0  0  0  0  0  0  0
    5.4029   -2.0367    0.3118 H   0  0  0  0  0  0  0  0  0  0  0  0
    5.1360    1.7337    0.8320 H   0  0  0  0  0  0  0  0  0  0  0  0
    4.7433    2.0876   -0.8948 H   0  0  0  0  0  0  0  0  0  0  0  0
    6.3831    1.4989   -0.4542 H   0  0  0  0  0  0  0  0  0  0  0  0
   -1.1578    1.3651   -2.1782 H   0  0  0  0  0  0  0  0  0  0  0  0
   -1.1690    3.1331   -2.5342 H   0  0  0  0  0  0  0  0  0  0  0  0
    0.3022    2.3343   -1.9397 H   0  0  0  0  0  0  0  0  0  0  0  0
   -1.0039    3.0572    1.5959 H   0  0  0  0  0  0  0  0  0  0  0  0
    1.2626    2.0208    1.4281 H   0  0  0  0  0  0  0  0  0  0  0  0
    1.4711    2.5911   -0.2583 H   0  0  0  0  0  0  0  0  0  0  0  0
    2.4134    3.9472    1.3305 H   0  0  0  0  0  0  0  0  0  0  0  0
  1 21  1  0  0  0  0
  1 61  1  0  0  0  0
  2  3  1  0  0  0  0
  2  7  1  0  0  0  0
  2 11  1  0  0  0  0
  2 22  1  6  0  0  0
  3  5  1  0  0  0  0
  3 23  1  0  0  0  0
  3 24  1  0  0  0  0
  4  6  1  0  0  0  0
  4  8  1  0  0  0  0
  4 13  1  0  0  0  0
  4 25  1  6  0  0  0
  5  6  1  0  0  0  0
  5 26  1  0  0  0  0
  5 27  1  0  0  0  0
  6 28  1  0  0  0  0
  6 29  1  0  0  0  0
  7  9  1  0  0  0  0
  7 30  1  0  0  0  0
  7 31  1  0  0  0  0
  8 12  1  0  0  0  0
  8 32  1  0  0  0  0
  8 33  1  0  0  0  0
  9 10  1  0  0  0  0
  9 34  1  0  0  0  0
  9 35  1  0  0  0  0
 10 14  1  0  0  0  0
 10 36  1  0  0  0  0
 10 37  1  0  0  0  0
 11 38  1  0  0  0  0
 11 39  1  0  0  0  0
 11 40  1  0  0  0  0
 12 15  1  0  0  0  0
 12 41  1  0  0  0  0
 12 42  1  0  0  0  0
 13 43  1  0  0  0  0
 13 44  1  0  0  0  0
 13 45  1  0  0  0  0
 14 16  1  0  0  0  0
 14 17  1  0  0  0  0
 14 46  1  0  0  0  0
 15 18  1  0  0  0  0
 15 47  1  0  0  0  0
 15 48  1  0  0  0  0
 16 49  1  0  0  0  0
 16 50  1  0  0  0  0
 16 51  1  0  0  0  0
 17 52  1  0  0  0  0
 17 53  1  0  0  0  0
 17 54  1  0  0  0  0
 18 19  1  0  0  0  0
 18 20  2  0  0  0  0
 19 55  1  0  0  0  0
 19 56  1  0  0  0  0
 19 57  1  0  0  0  0
 20 21  1  0  0  0  0
 20 58  1  0  0  0  0
 21 59  1  0  0  0  0
 21 60  1  0  0  0  0
M  END
