
 OpenBabel09232613163D

 25 26  0  0  0  0  0  0  0  0999 V2000
   32.4733   56.0311    0.0058 C   0  0  0  0  0  0  0  0  0  0  0  0
   30.9270   55.9870    0.0755 C   0  0  2  0  0  0  0  0  0  0  0  0
   32.3862   54.6698   -0.7318 C   0  0  1  0  0  0  0  0  0  0  0  0
   31.0319   54.4383   -0.0003 C   0  0  0  0  0  0  0  0  0  0  0  0
   32.1864   54.9675   -2.2544 C   0  0  0  0  0  0  0  0  0  0  0  0
   31.1056   56.0125   -2.4690 C   0  0  0  0  0  0  0  0  0  0  0  0
   30.4264   56.5477   -1.2544 C   0  0  0  0  0  0  0  0  0  0  0  0
   30.8080   56.3837   -3.5942 O   0  0  0  0  0  0  0  0  0  0  0  0
   29.4490   57.4622   -1.3151 C   0  0  0  0  0  0  0  0  0  0  0  0
   31.2307   53.7980    1.4032 C   0  0  0  0  0  0  0  0  0  0  0  0
   29.9102   53.6434   -0.7152 C   0  0  0  0  0  0  0  0  0  0  0  0
   32.9100   55.8987    1.0172 H   0  0  0  0  0  0  0  0  0  0  0  0
   32.9760   56.8907   -0.4911 H   0  0  0  0  0  0  0  0  0  0  0  0
   30.4151   56.4417    0.9520 H   0  0  0  0  0  0  0  0  0  0  0  0
   33.2019   53.9301   -0.5809 H   0  0  0  0  0  0  0  0  0  0  0  0
   33.1421   55.3434   -2.6786 H   0  0  0  0  0  0  0  0  0  0  0  0
   31.9120   54.0305   -2.7838 H   0  0  0  0  0  0  0  0  0  0  0  0
   29.1063   57.8529   -2.2680 H   0  0  0  0  0  0  0  0  0  0  0  0
   28.9783   57.8316   -0.4094 H   0  0  0  0  0  0  0  0  0  0  0  0
   31.5142   52.7297    1.2911 H   0  0  0  0  0  0  0  0  0  0  0  0
   30.2808   53.8495    1.9772 H   0  0  0  0  0  0  0  0  0  0  0  0
   32.0098   54.2726    2.0289 H   0  0  0  0  0  0  0  0  0  0  0  0
   29.6706   54.0129   -1.7293 H   0  0  0  0  0  0  0  0  0  0  0  0
   30.2083   52.5781   -0.8154 H   0  0  0  0  0  0  0  0  0  0  0  0
   28.9735   53.6971   -0.1208 H   0  0  0  0  0  0  0  0  0  0  0  0
  1  2  1  0  0  0  0
  1 12  1  0  0  0  0
  1 13  1  0  0  0  0
  2  7  1  0  0  0  0
  2  4  1  0  0  0  0
  2 14  1  1  0  0  0
  3  1  1  0  0  0  0
  3 15  1  1  0  0  0
  4  3  1  0  0  0  0
  4 10  1  0  0  0  0
  4 11  1  0  0  0  0
  5  3  1  0  0  0  0
  5 16  1  0  0  0  0
  5 17  1  0  0  0  0
  6  5  1  0  0  0  0
  6  8  2  0  0  0  0
  7  6  1  0  0  0  0
  7  9  2  0  0  0  0
  9 18  1  0  0  0  0
  9 19  1  0  0  0  0
 10 20  1  0  0  0  0
 10 21  1  0  0  0  0
 10 22  1  0  0  0  0
 11 23  1  0  0  0  0
 11 24  1  0  0  0  0
 11 25  1  0  0  0  0
M  END
