
 OpenBabel09242609293D

 27 27  0  0  1  0  0  0  0  0999 V2000
   -0.3472   -2.2970   -0.9144 O   0  0  0  0  0  0  0  0  0  0  0  0
   -0.8324    0.0298   -0.7840 C   0  0  1  0  0  0  0  0  0  0  0  0
   -1.5874    0.4429    0.5218 C   0  0  0  0  0  0  0  0  0  0  0  0
    0.1198    1.1140   -1.3174 C   0  0  0  0  0  0  0  0  0  0  0  0
    1.2339    1.4365   -0.2965 C   0  0  0  0  0  0  0  0  0  0  0  0
    0.0290   -1.1932   -0.5514 C   0  0  0  0  0  0  0  0  0  0  0  0
    1.8946    0.1866    0.2690 C   0  0  0  0  0  0  0  0  0  0  0  0
   -2.4364    1.7089    0.3158 C   0  0  0  0  0  0  0  0  0  0  0  0
   -2.5083   -0.6916    1.0059 C   0  0  0  0  0  0  0  0  0  0  0  0
    1.3419   -1.0377    0.1129 C   0  0  0  0  0  0  0  0  0  0  0  0
    3.1927    0.3459    1.0120 C   0  0  0  0  0  0  0  0  0  0  0  0
   -1.5989   -0.2017   -1.5578 H   0  0  0  0  0  0  0  0  0  0  0  0
   -0.8582    0.6470    1.3353 H   0  0  0  0  0  0  0  0  0  0  0  0
   -0.4098    2.0422   -1.6144 H   0  0  0  0  0  0  0  0  0  0  0  0
    0.5954    0.7144   -2.2421 H   0  0  0  0  0  0  0  0  0  0  0  0
    0.8499    2.0407    0.5522 H   0  0  0  0  0  0  0  0  0  0  0  0
    1.9878    2.0517   -0.8334 H   0  0  0  0  0  0  0  0  0  0  0  0
   -1.8032    2.5807    0.0567 H   0  0  0  0  0  0  0  0  0  0  0  0
   -2.9707    1.9683    1.2548 H   0  0  0  0  0  0  0  0  0  0  0  0
   -3.1864    1.5522   -0.4890 H   0  0  0  0  0  0  0  0  0  0  0  0
   -1.9249   -1.6073    1.2349 H   0  0  0  0  0  0  0  0  0  0  0  0
   -3.0308   -0.3914    1.9394 H   0  0  0  0  0  0  0  0  0  0  0  0
   -3.2700   -0.9356    0.2343 H   0  0  0  0  0  0  0  0  0  0  0  0
    1.8531   -1.9255    0.4748 H   0  0  0  0  0  0  0  0  0  0  0  0
    3.5851   -0.6258    1.3813 H   0  0  0  0  0  0  0  0  0  0  0  0
    3.0390    1.0153    1.8840 H   0  0  0  0  0  0  0  0  0  0  0  0
    3.9522    0.7964    0.3393 H   0  0  0  0  0  0  0  0  0  0  0  0
  1  6  2  0  0  0  0
  2  3  1  0  0  0  0
  2  4  1  0  0  0  0
  2  6  1  0  0  0  0
  2 12  1  6  0  0  0
  3  8  1  0  0  0  0
  3  9  1  0  0  0  0
  3 13  1  0  0  0  0
  4  5  1  0  0  0  0
  4 14  1  0  0  0  0
  4 15  1  0  0  0  0
  5  7  1  0  0  0  0
  5 16  1  0  0  0  0
  5 17  1  0  0  0  0
  6 10  1  0  0  0  0
  7 10  2  0  0  0  0
  7 11  1  0  0  0  0
  8 18  1  0  0  0  0
  8 19  1  0  0  0  0
  8 20  1  0  0  0  0
  9 21  1  0  0  0  0
  9 22  1  0  0  0  0
  9 23  1  0  0  0  0
 10 24  1  0  0  0  0
 11 25  1  0  0  0  0
 11 26  1  0  0  0  0
 11 27  1  0  0  0  0
M  END
