
 OpenBabel09232613273D

 22 23  0  0  0  0  0  0  0  0999 V2000
   -5.3417   -1.7491   -1.1463 C   0  0  0  0  0  0  0  0  0  0  0  0
   -5.7263   -3.0120   -0.8666 C   0  0  0  0  0  0  0  0  0  0  0  0
   -4.0021   -1.3944   -1.2793 C   0  0  0  0  0  0  0  0  0  0  0  0
   -6.4234   -0.9743   -1.2602 O   0  0  0  0  0  0  0  0  0  0  0  0
   -4.8090   -4.0438   -0.6931 C   0  0  0  0  0  0  0  0  0  0  0  0
   -7.0590   -3.0617   -0.7976 O   0  0  0  0  0  0  0  0  0  0  0  0
   -3.4422   -3.7330   -0.8181 C   0  0  0  0  0  0  0  0  0  0  0  0
   -3.0283   -2.4064   -1.1102 C   0  0  0  0  0  0  0  0  0  0  0  0
   -1.5659   -2.0762   -1.2468 C   0  0  0  0  0  0  0  0  0  0  0  0
   -7.5398   -1.7781   -1.0436 C   0  0  0  0  0  0  0  0  0  0  0  0
   -0.6569    0.1193   -0.5149 C   0  0  0  0  0  0  0  0  0  0  0  0
   -1.1526   -1.0801   -0.1975 C   0  0  0  0  0  0  0  0  0  0  0  0
   -3.7233   -0.3729   -1.5055 H   0  0  0  0  0  0  0  0  0  0  0  0
   -5.1362   -5.0508   -0.4700 H   0  0  0  0  0  0  0  0  0  0  0  0
   -2.7105   -4.5203   -0.6875 H   0  0  0  0  0  0  0  0  0  0  0  0
   -0.9428   -2.9869   -1.1164 H   0  0  0  0  0  0  0  0  0  0  0  0
   -1.3834   -1.6852   -2.2718 H   0  0  0  0  0  0  0  0  0  0  0  0
   -8.1888   -1.7803   -1.9451 H   0  0  0  0  0  0  0  0  0  0  0  0
   -8.1104   -1.4096   -0.1648 H   0  0  0  0  0  0  0  0  0  0  0  0
   -0.3694    0.8115    0.2697 H   0  0  0  0  0  0  0  0  0  0  0  0
   -0.5340    0.4217   -1.5504 H   0  0  0  0  0  0  0  0  0  0  0  0
   -1.2609   -1.3469    0.8500 H   0  0  0  0  0  0  0  0  0  0  0  0
  1  3  2  0  0  0  0
  2  6  1  0  0  0  0
  2  1  1  0  0  0  0
  3 13  1  0  0  0  0
  4  1  1  0  0  0  0
  5  2  2  0  0  0  0
  5 14  1  0  0  0  0
  6 10  1  0  0  0  0
  7  5  1  0  0  0  0
  7 15  1  0  0  0  0
  8  9  1  0  0  0  0
  8  7  2  0  0  0  0
  8  3  1  0  0  0  0
  9 12  1  0  0  0  0
  9 16  1  0  0  0  0
  9 17  1  0  0  0  0
 10  4  1  0  0  0  0
 10 18  1  0  0  0  0
 10 19  1  0  0  0  0
 11 12  2  0  0  0  0
 11 20  1  0  0  0  0
 11 21  1  0  0  0  0
 12 22  1  0  0  0  0
M  END
