
 OpenBabel09242609333D

 26 26  0  0  0  0  0  0  0  0999 V2000
   -0.0061    1.1898    0.8353 C   0  0  0  0  0  0  0  0  0  0  0  0
   -0.7623   -0.0421    0.4162 C   0  0  0  0  0  0  0  0  0  0  0  0
    1.2514    1.3024   -0.0407 C   0  0  0  0  0  0  0  0  0  0  0  0
    0.0247   -1.3244    0.6468 C   0  0  0  0  0  0  0  0  0  0  0  0
    2.0099   -0.0067   -0.1736 C   0  0  0  0  0  0  0  0  0  0  0  0
    1.4524   -1.1914    0.1694 C   0  0  0  0  0  0  0  0  0  0  0  0
   -2.0091   -0.0048   -0.1425 C   0  0  0  0  0  0  0  0  0  0  0  0
    3.4147    0.0441   -0.7109 C   0  0  0  0  0  0  0  0  0  0  0  0
   -2.7298    1.3075   -0.3594 C   0  0  0  0  0  0  0  0  0  0  0  0
   -2.7196   -1.2722   -0.5630 C   0  0  0  0  0  0  0  0  0  0  0  0
   -0.5692    2.1414    0.7606 H   0  0  0  0  0  0  0  0  0  0  0  0
    0.2803    1.0607    1.9023 H   0  0  0  0  0  0  0  0  0  0  0  0
    1.9002    2.0744    0.4267 H   0  0  0  0  0  0  0  0  0  0  0  0
    0.9905    1.6435   -1.0659 H   0  0  0  0  0  0  0  0  0  0  0  0
   -0.4416   -2.1905    0.1403 H   0  0  0  0  0  0  0  0  0  0  0  0
    0.0665   -1.5579    1.7316 H   0  0  0  0  0  0  0  0  0  0  0  0
    2.0406   -2.1028    0.1077 H   0  0  0  0  0  0  0  0  0  0  0  0
    3.8769   -0.9645   -0.7723 H   0  0  0  0  0  0  0  0  0  0  0  0
    4.0425    0.6757   -0.0482 H   0  0  0  0  0  0  0  0  0  0  0  0
    3.4050    0.4863   -1.7290 H   0  0  0  0  0  0  0  0  0  0  0  0
   -2.1352    1.9579   -1.0353 H   0  0  0  0  0  0  0  0  0  0  0  0
   -3.7274    1.1653   -0.8240 H   0  0  0  0  0  0  0  0  0  0  0  0
   -2.8851    1.8203    0.6131 H   0  0  0  0  0  0  0  0  0  0  0  0
   -3.7257   -1.0673   -0.9841 H   0  0  0  0  0  0  0  0  0  0  0  0
   -2.1339   -1.7949   -1.3482 H   0  0  0  0  0  0  0  0  0  0  0  0
   -2.8518   -1.9399    0.3145 H   0  0  0  0  0  0  0  0  0  0  0  0
  1  2  1  0  0  0  0
  1  3  1  0  0  0  0
  1 11  1  0  0  0  0
  1 12  1  0  0  0  0
  2  4  1  0  0  0  0
  2  7  2  0  0  0  0
  3  5  1  0  0  0  0
  3 13  1  0  0  0  0
  3 14  1  0  0  0  0
  4  6  1  0  0  0  0
  4 15  1  0  0  0  0
  4 16  1  0  0  0  0
  5  6  2  0  0  0  0
  5  8  1  0  0  0  0
  6 17  1  0  0  0  0
  7  9  1  0  0  0  0
  7 10  1  0  0  0  0
  8 18  1  0  0  0  0
  8 19  1  0  0  0  0
  8 20  1  0  0  0  0
  9 21  1  0  0  0  0
  9 22  1  0  0  0  0
  9 23  1  0  0  0  0
 10 24  1  0  0  0  0
 10 25  1  0  0  0  0
 10 26  1  0  0  0  0
M  END
