
 OpenBabel09242609323D

 29 29  0  0  1  0  0  0  0  0999 V2000
    0.6680   -0.1649    1.4725 O   0  0  0  0  0  0  0  0  0  0  0  0
    0.6487   -0.0359    0.0641 C   0  0  1  0  0  0  0  0  0  0  0  0
    2.1372    0.0201   -0.4412 C   0  0  0  0  0  0  0  0  0  0  0  0
   -0.1159   -1.2312   -0.5429 C   0  0  0  0  0  0  0  0  0  0  0  0
   -0.1054    1.2619   -0.3819 C   0  0  0  0  0  0  0  0  0  0  0  0
   -1.5542   -1.3052   -0.0018 C   0  0  0  0  0  0  0  0  0  0  0  0
   -2.2725    0.0250   -0.0459 C   0  0  0  0  0  0  0  0  0  0  0  0
   -1.6091    1.1825   -0.2481 C   0  0  0  0  0  0  0  0  0  0  0  0
    2.8987    1.2422    0.1117 C   0  0  0  0  0  0  0  0  0  0  0  0
    2.9400   -1.2449   -0.0748 C   0  0  0  0  0  0  0  0  0  0  0  0
   -3.7647    0.0281    0.1497 C   0  0  0  0  0  0  0  0  0  0  0  0
    2.1358    0.1025   -1.5511 H   0  0  0  0  0  0  0  0  0  0  0  0
    0.3604   -2.2075   -0.3262 H   0  0  0  0  0  0  0  0  0  0  0  0
   -0.1474   -1.0983   -1.6479 H   0  0  0  0  0  0  0  0  0  0  0  0
    0.0973    1.5013   -1.4484 H   0  0  0  0  0  0  0  0  0  0  0  0
    0.2534    2.1085    0.2396 H   0  0  0  0  0  0  0  0  0  0  0  0
   -1.5720   -1.6655    1.0493 H   0  0  0  0  0  0  0  0  0  0  0  0
   -2.0937   -2.0497   -0.6266 H   0  0  0  0  0  0  0  0  0  0  0  0
   -2.1617    2.1148   -0.3237 H   0  0  0  0  0  0  0  0  0  0  0  0
    2.9352    1.2174    1.2218 H   0  0  0  0  0  0  0  0  0  0  0  0
    3.9405    1.2514   -0.2747 H   0  0  0  0  0  0  0  0  0  0  0  0
    2.4359    2.1944   -0.2150 H   0  0  0  0  0  0  0  0  0  0  0  0
    2.9772   -1.3865    1.0264 H   0  0  0  0  0  0  0  0  0  0  0  0
    3.9814   -1.1586   -0.4526 H   0  0  0  0  0  0  0  0  0  0  0  0
    2.5170   -2.1535   -0.5444 H   0  0  0  0  0  0  0  0  0  0  0  0
   -0.1687    0.2061    1.8549 H   0  0  0  0  0  0  0  0  0  0  0  0
   -4.1919    1.0528    0.1035 H   0  0  0  0  0  0  0  0  0  0  0  0
   -4.0082   -0.4070    1.1415 H   0  0  0  0  0  0  0  0  0  0  0  0
   -4.2439   -0.5854   -0.6418 H   0  0  0  0  0  0  0  0  0  0  0  0
  1 26  1  0  0  0  0
  2  1  1  1  0  0  0
  2  3  1  0  0  0  0
  2  4  1  0  0  0  0
  2  5  1  0  0  0  0
  3  9  1  0  0  0  0
  3 10  1  0  0  0  0
  3 12  1  0  0  0  0
  4  6  1  0  0  0  0
  4 13  1  0  0  0  0
  4 14  1  0  0  0  0
  5  8  1  0  0  0  0
  5 15  1  0  0  0  0
  5 16  1  0  0  0  0
  6  7  1  0  0  0  0
  6 17  1  0  0  0  0
  6 18  1  0  0  0  0
  7  8  2  0  0  0  0
  7 11  1  0  0  0  0
  8 19  1  0  0  0  0
  9 20  1  0  0  0  0
  9 21  1  0  0  0  0
  9 22  1  0  0  0  0
 10 23  1  0  0  0  0
 10 24  1  0  0  0  0
 10 25  1  0  0  0  0
 11 27  1  0  0  0  0
 11 28  1  0  0  0  0
 11 29  1  0  0  0  0
M  END
