
 OpenBabel09242609383D

 27 28  0  0  1  0  0  0  0  0999 V2000
    2.6995   -0.6689   -0.0151 O   0  0  0  0  0  0  0  0  0  0  0  0
   -1.4384    0.1046   -0.1762 C   0  0  0  0  0  0  0  0  0  0  0  0
   -0.7493   -1.2803   -0.0324 C   0  0  2  0  0  0  0  0  0  0  0  0
   -0.4372    0.5936    0.8947 C   0  0  1  0  0  0  0  0  0  0  0  0
   -0.3521   -0.8659    1.4028 C   0  0  0  0  0  0  0  0  0  0  0  0
    0.5492   -1.3552   -0.8918 C   0  0  0  0  0  0  0  0  0  0  0  0
    0.9185    0.8928    0.2610 C   0  0  0  0  0  0  0  0  0  0  0  0
    1.5408   -0.1729   -0.6371 C   0  0  1  0  0  0  0  0  0  0  0  0
   -2.9001    0.0826    0.3552 C   0  0  0  0  0  0  0  0  0  0  0  0
   -1.4585    0.8136   -1.5535 C   0  0  0  0  0  0  0  0  0  0  0  0
    1.5637    2.0385    0.5193 C   0  0  0  0  0  0  0  0  0  0  0  0
   -1.3739   -2.1868   -0.1864 H   0  0  0  0  0  0  0  0  0  0  0  0
   -0.7698    1.3921    1.5941 H   0  0  0  0  0  0  0  0  0  0  0  0
    0.5989   -1.2447    1.8388 H   0  0  0  0  0  0  0  0  0  0  0  0
   -1.1792   -1.0778    2.1112 H   0  0  0  0  0  0  0  0  0  0  0  0
    0.2407   -1.3655   -1.9597 H   0  0  0  0  0  0  0  0  0  0  0  0
    1.0680   -2.3231   -0.7175 H   0  0  0  0  0  0  0  0  0  0  0  0
    1.8039    0.2534   -1.6343 H   0  0  0  0  0  0  0  0  0  0  0  0
   -3.2826    1.1216    0.4467 H   0  0  0  0  0  0  0  0  0  0  0  0
   -3.5498   -0.4677   -0.3585 H   0  0  0  0  0  0  0  0  0  0  0  0
   -3.0320   -0.3963    1.3438 H   0  0  0  0  0  0  0  0  0  0  0  0
   -0.4631    0.9069   -2.0242 H   0  0  0  0  0  0  0  0  0  0  0  0
   -2.1089    0.2527   -2.2577 H   0  0  0  0  0  0  0  0  0  0  0  0
   -1.8592    1.8434   -1.4408 H   0  0  0  0  0  0  0  0  0  0  0  0
    2.5349    2.2399    0.0784 H   0  0  0  0  0  0  0  0  0  0  0  0
    1.1289    2.7893    1.1716 H   0  0  0  0  0  0  0  0  0  0  0  0
    3.4530   -0.0813   -0.2848 H   0  0  0  0  0  0  0  0  0  0  0  0
  1  8  1  0  0  0  0
  1 27  1  0  0  0  0
  2  3  1  0  0  0  0
  2  4  1  0  0  0  0
  2  9  1  0  0  0  0
  2 10  1  0  0  0  0
  3  5  1  0  0  0  0
  3  6  1  0  0  0  0
  3 12  1  6  0  0  0
  4  5  1  0  0  0  0
  4  7  1  0  0  0  0
  4 13  1  1  0  0  0
  5 14  1  0  0  0  0
  5 15  1  0  0  0  0
  6  8  1  0  0  0  0
  6 16  1  0  0  0  0
  6 17  1  0  0  0  0
  7  8  1  0  0  0  0
  7 11  2  0  0  0  0
  8 18  1  6  0  0  0
  9 19  1  0  0  0  0
  9 20  1  0  0  0  0
  9 21  1  0  0  0  0
 10 22  1  0  0  0  0
 10 23  1  0  0  0  0
 10 24  1  0  0  0  0
 11 25  1  0  0  0  0
 11 26  1  0  0  0  0
M  END
